geometry optimzed in LAMMPS
_audit_creation_date              2020-12-01 
_audit_creation_method            'lammps2cif' 
_symmetry_space_group_name_H-M    'P1' 
_symmetry_Int_Tables_number       1 
_symmetry_cell_setting            triclinic 
loop_ 
_symmetry_equiv_pos_as_xyz 
  x,y,z 
_cell_length_a                    49.2696284 
_cell_length_b                    48.53486866080604 
_cell_length_c                    37.95202865000731 
_cell_angle_alpha                 89.8093012110743 
_cell_angle_beta                  90.16140563290188 
_cell_angle_gamma                 119.43898187706367 
loop_ 
_atom_site_label 
_atom_site_type_symbol 
_atom_site_fract_x 
_atom_site_fract_y 
_atom_site_fract_z 
_atom_site_charge 
C1          C  0.48886050  0.72177589  0.08854730     0.80500
N2          N  0.48091935  0.71694033  0.12331112    -0.77900
C3          C  0.47535509  0.73792287  0.14100069     0.82900
N4          N  0.47727696  0.76326352  0.12377909    -0.77800
C5          C  0.48500270  0.76832670  0.08930503     0.83000
N6          N  0.49097716  0.74759419  0.07163496    -0.79500
C7          C  0.45399115  0.70549144  0.23180440     0.80500
N8          N  0.45212960  0.72957583  0.24775329    -0.77900
C9          C  0.45810634  0.75602317  0.22942981     0.82900
N10         N  0.46566992  0.75813784  0.19496163    -0.77800
C11         C  0.46740597  0.73427191  0.17855981     0.83000
N12         N  0.46176549  0.70791547  0.19704402    -0.79500
C13         C  0.20115688  0.77303013  0.24810768     0.80500
N14         N  0.20571634  0.76945322  0.21340865    -0.77900
C15         C  0.18293012  0.74531895  0.19453860     0.82900
N16         N  0.15603491  0.72444822  0.21069077    -0.77800
C17         C  0.15133996  0.72780172  0.24519429     0.83000
N18         N  0.17382454  0.75230379  0.26372756    -0.79500
C19         C  0.21622163  0.75799271  0.10457192     0.80500
N20         N  0.19318176  0.73276340  0.08747920    -0.77900
C21         C  0.16677258  0.71199117  0.10449682     0.82900
N22         N  0.16372242  0.71636211  0.13924063    -0.77800
C23         C  0.18683805  0.74129047  0.15686033     0.83000
N24         N  0.21299440  0.76234709  0.13935441    -0.79500
C25         C  0.15872422  0.45181617  0.10845980     0.80500
N26         N  0.18546234  0.45866916  0.09142993    -0.77900
C27         C  0.20799296  0.45477900  0.10749924     0.82900
N28         N  0.20393653  0.44436957  0.14145310    -0.77800
C29         C  0.17737314  0.43798732  0.15901260     0.83000
N30         N  0.15475906  0.44143714  0.14225659    -0.79500
C31         C  0.14109735  0.41260894  0.24680584     0.80500
N32         N  0.14604320  0.42177242  0.21255520    -0.77900
C33         C  0.17274832  0.42767804  0.19605520     0.82900
N34         N  0.19516882  0.42515299  0.21436668    -0.77800
C35         C  0.19043446  0.41582551  0.24873840     0.83000
N36         N  0.16328683  0.40941453  0.26480341    -0.79500
C37         C  0.73156993  0.25412033  0.23932667     0.80500
N38         N  0.73683812  0.24807619  0.20569647    -0.77900
C39         C  0.71405561  0.22277199  0.18787373     0.82900
N40         N  0.68632689  0.20362917  0.20396755    -0.77800
C41         C  0.68102710  0.20973169  0.23734687     0.83000
N42         N  0.70366394  0.23491504  0.25460449    -0.79500
C43         C  0.74849878  0.23017055  0.09883834     0.80500
N44         N  0.74494146  0.23596905  0.13313369    -0.77900
C45         C  0.71859409  0.21613680  0.15103399     0.82900
N46         N  0.69560258  0.19052520  0.13429040    -0.77800
C47         C  0.69882816  0.18433900  0.10011643     0.83000
N48         N  0.72537390  0.20429091  0.08247404    -0.79500
C49         C  0.69958764  0.52637746  0.09810672     0.80500
N50         N  0.72570409  0.53211005  0.08009803    -0.77900
C51         C  0.74905035  0.52971860  0.09673466     0.82900
N52         N  0.74609031  0.52158144  0.13154704    -0.77800
C53         C  0.72011973  0.51605150  0.14961669     0.83000
N54         N  0.69708442  0.51834912  0.13263288    -0.79500
C55         C  0.68189126  0.48909825  0.23614513     0.80500
N56         N  0.68793525  0.49924712  0.20232936    -0.77900
C57         C  0.71547953  0.50625271  0.18694366     0.82900
N58         N  0.73751819  0.50333329  0.20592312    -0.77800
C59         C  0.73164113  0.49320415  0.24009551     0.83000
N60         N  0.70379438  0.48607132  0.25479879    -0.79500
C61         C  0.44133917  0.19949015  0.24059565     0.80500
N62         N  0.43398980  0.19652007  0.20588278    -0.77900
C63         C  0.42753833  0.21771759  0.18967607     0.82900
N64         N  0.42790989  0.24172956  0.20860218    -0.77800
C65         C  0.43512575  0.24458787  0.24352785     0.83000
N66         N  0.44203679  0.22360611  0.25904701    -0.79500
C67         C  0.41749976  0.18801910  0.09853570     0.80500
N68         N  0.41084663  0.20848233  0.08085606    -0.77900
C69         C  0.40997440  0.23250035  0.09852048     0.82900
N70         N  0.41535494  0.23558120  0.13390155    -0.77800
C71         C  0.42134640  0.21481137  0.15160595     0.83000
N72         N  0.42269131  0.19144865  0.13371003    -0.79500
O73         O  0.44081396  0.53288678  0.40113763    -0.79900
O74         O  0.45024477  0.41556061  0.41422668    -0.79900
O75         O  0.49807603  0.48731558  0.36673387    -0.79900
O76         O  0.36793089  0.42233881  0.40393552    -0.79900
O77         O  0.50822750  0.46412306  0.41114063    -0.80000
O78         O  0.39584673  0.47257846  0.38821613    -0.79900
O79         O  0.42332060  0.42896375  0.37768126    -0.79900
O80         O  0.46427063  0.51924723  0.36226506    -0.79900
C81         C  0.45061355  0.53459433  0.37011234     1.09800
C82         C  0.43693988  0.41311164  0.38448715     1.09700
C83         C  0.51105799  0.47225311  0.37882645     1.09800
C84         C  0.37064043  0.44548432  0.38575472     1.09700
O85         O  0.39528850  0.50264203  0.44763897    -0.79900
O86         O  0.49959946  0.49003738  0.47604047    -0.80000
O87         O  0.49113516  0.54890662  0.43115119    -0.79900
O88         O  0.40368860  0.40829083  0.44738761    -0.79900
O89         O  0.44094462  0.43875594  0.48257036    -0.79900
O90         O  0.45449240  0.51865083  0.46935548    -0.79900
O91         O  0.39276065  0.45749164  0.46255450    -0.79900
O92         O  0.52618423  0.51993169  0.43121663    -0.79900
Co93       Co  0.42646168  0.49425049  0.43073056     1.51500
Co94       Co  0.47347364  0.45355418  0.44574758     1.51700
Co95       Co  0.49225040  0.51638977  0.39835582     1.51600
Co96       Co  0.41040798  0.44554547  0.41785406     1.51500
O97         O  0.45591062  0.47833554  0.42185305    -1.41800
C98         C  0.38329228  0.47793345  0.46633496     1.09700
C99         C  0.52492259  0.51132433  0.46315004     1.09800
C100        C  0.47812959  0.54475945  0.46134789     1.09700
C101        C  0.41747029  0.41224819  0.47657905     1.09700
O102        O  0.01684145  0.54106562  0.42454520    -0.79900
O103        O  0.91425949  0.43397723  0.48362489    -0.79900
O104        O  0.92221664  0.52661508  0.44306979    -0.79900
O105        O  0.98003605  0.44972441  0.45796205    -0.79900
O106        O  0.91434198  0.49083469  0.48304740    -0.80000
O107        O  0.01688537  0.48692237  0.42795334    -0.79900
O108        O  0.92188131  0.40581269  0.44425626    -0.79900
O109        O  0.98044223  0.54098190  0.45556320    -0.79900
C110        C  0.00889508  0.55164175  0.45023934     1.09800
C111        C  0.91234438  0.40808578  0.47453688     1.09700
C112        C  0.91275403  0.51498227  0.47355685     1.09800
C113        C  0.00849080  0.46837927  0.45382939     1.09700
O114        O  0.98127908  0.46347233  0.36368763    -0.79900
O115        O  0.88424018  0.47496952  0.41454487    -0.80000
O116        O  0.96824710  0.55738582  0.39026583    -0.79900
O117        O  0.92335971  0.43470970  0.37694079    -0.79900
O118        O  0.88498256  0.42015491  0.41425118    -0.79900
O119        O  0.97926873  0.52393933  0.36196371    -0.79900
O120        O  0.96840646  0.41960368  0.39435310    -0.79900
O121        O  0.92184615  0.49750483  0.37630233    -0.79900
Co122      Co  0.99230110  0.50071470  0.39817347     1.51500
Co123      Co  0.90289774  0.45664469  0.44821424     1.51700
Co124      Co  0.95251889  0.51869784  0.41522414     1.51600
Co125      Co  0.95300561  0.44385906  0.41681425     1.51500
O126        O  0.94879848  0.47946040  0.43138948    -1.41800
C127        C  0.98202956  0.43730443  0.36811746     1.09700
C128        C  0.89332048  0.48528323  0.38364882     1.09800
C129        C  0.98146790  0.55161202  0.36479657     1.09700
C130        C  0.89461284  0.41932737  0.38351691     1.09700
O131        O  0.46099379  0.94441581  0.46776380    -0.79900
O132        O  0.44755388  0.01412935  0.47730646    -0.79900
O133        O  0.53185452  0.01452010  0.42723295    -0.79900
O134        O  0.39726478  0.94537090  0.45879307    -0.79900
O135        O  0.50500203  0.01836284  0.47122214    -0.80000
O136        O  0.40098499  0.90264686  0.44801955    -0.79900
O137        O  0.41029325  0.00591433  0.44108691    -0.79900
O138        O  0.49673821  0.95020572  0.42858667    -0.79900
C139        C  0.48346637  0.94024224  0.45837925     1.09800
C140        C  0.42449707  0.01758200  0.46965005     1.09700
C141        C  0.53049107  0.02256415  0.45889511     1.09800
C142        C  0.38806816  0.91566420  0.46435252     1.09700
O143        O  0.40108649  0.93143665  0.38730425    -0.79900
O144        O  0.51424234  0.05142568  0.40415227    -0.80000
O145        O  0.46898782  0.95040946  0.36033565    -0.79900
O146        O  0.43024201  0.00330509  0.37213325    -0.79900
O147        O  0.45730462  0.04397703  0.40779774    -0.79900
O148        O  0.44483513  0.91548074  0.40139878    -0.79900
O149        O  0.37384153  0.95558745  0.39863620    -0.79900
O150        O  0.50153624  0.01590163  0.36199956    -0.79900
Co151      Co  0.43208351  0.94119686  0.42983819     1.51500
Co152      Co  0.47984379  0.02920908  0.44010640     1.51700
Co153      Co  0.49723989  0.98285833  0.39518830     1.51600
Co154      Co  0.41618765  0.97423663  0.41330841     1.51500
O155        O  0.46137823  0.98581439  0.41857155    -1.41800
C156        C  0.37643501  0.93409760  0.38266603     1.09700
C157        C  0.51470757  0.04441734  0.37187533     1.09800
C158        C  0.45465777  0.92183707  0.37025081     1.09700
C159        C  0.44485161  0.03296705  0.37789386     1.09700
C160        C  0.41278502  0.35174761  0.04459094     0.16200
C161        C  0.41901108  0.33676528  0.07257169    -0.32900
C162        C  0.40971488  0.30458658  0.06887360     0.20600
C163        C  0.39466692  0.28788732  0.03878204     0.02800
C164        C  0.38766656  0.30269818  0.01111730    -0.22600
C165        C  0.39720717  0.33502765  0.01470371     0.11900
S166        S  0.42562664  0.39139949  0.04233704    -0.06200
C167        C  0.40986564  0.38557454  0.50066061    -0.09700
C168        C  0.39502474  0.35427972  0.48957395    -0.26300
S169        S  0.38770779  0.24965793  0.03843579    -0.03500
C170        C  0.40504015  0.25625974  0.07940480    -0.17000
C171        C  0.41535149  0.28650004  0.09239048    -0.15000
H172        H  0.43160570  0.34989655  0.09564531     0.20400
H173        H  0.37640362  0.28993526  0.48736807     0.16500
H174        H  0.38527104  0.34643227  0.46355169     0.19000
H175        H  0.42738243  0.29517465  0.11722729     0.12300
C176        C  0.42921066  0.12001801  0.06487396     0.16200
C177        C  0.43663051  0.09573032  0.06110457    -0.32900
C178        C  0.42622170  0.07711830  0.03060942     0.20600
C179        C  0.40907070  0.08241268  0.00511944     0.02800
C180        C  0.40210632  0.10705876  0.00862784    -0.22600
C181        C  0.41263320  0.12578280  0.03905190     0.11900
S182        S  0.43863680  0.14424047  0.10053310    -0.06200
C183        C  0.42026494  0.16262326  0.08048123    -0.09700
C184        C  0.40775143  0.15053449  0.04763685    -0.26300
S185        S  0.39877554  0.05746185  0.46996616    -0.03500
C186        C  0.41825293  0.03998998  0.48937035    -0.17000
C187        C  0.43172789  0.05288386  0.02165715    -0.15000
H188        H  0.44982983  0.09146620  0.08112432     0.20400
H189        H  0.38901009  0.11140289  0.98853980     0.16500
H190        H  0.39505554  0.15877965  0.03142419     0.19000
H191        H  0.44566340  0.04566159  0.03712621     0.12300
C192        C  0.44462999  0.30723710  0.31062410     0.16200
C193        C  0.45171203  0.32627271  0.34045045    -0.32900
C194        C  0.44335760  0.34988681  0.34018233     0.20600
C195        C  0.42848312  0.35452094  0.31158287     0.02800
C196        C  0.42163153  0.33554778  0.28133634    -0.22600
C197        C  0.43013781  0.31178703  0.28155128     0.11900
S198        S  0.45250003  0.27706494  0.30676839    -0.06200
C199        C  0.43655256  0.27037341  0.26515454    -0.09700
C200        C  0.42552515  0.29063049  0.25504446    -0.26300
S201        S  0.41947185  0.38407469  0.31764312    -0.03500
C202        C  0.43603073  0.38993273  0.35900713    -0.17000
C203        C  0.44793391  0.37015597  0.36718066    -0.15000
H204        H  0.46303794  0.32265229  0.36305945     0.20400
H205        H  0.41004362  0.33897527  0.25887272     0.16500
H206        H  0.41457440  0.28974409  0.22999711     0.19000
H207        H  0.45892845  0.37019637  0.39193659     0.12300
C208        C  0.46156109  0.14901962  0.30082391     0.16200
C209        C  0.46957044  0.13676935  0.32985015    -0.32900
C210        C  0.45915763  0.10430352  0.33019484     0.20600
C211        C  0.44220330  0.08476640  0.30254477     0.02800
C212        C  0.43507841  0.09729475  0.27275331    -0.22600
C213        C  0.44485753  0.12983987  0.27277625     0.11900
S214        S  0.46846748  0.18689301  0.29811551    -0.06200
C215        C  0.44852210  0.17705734  0.25876668    -0.09700
C216        C  0.43771861  0.14605641  0.24807622    -0.26300
S217        S  0.42950752  0.04542426  0.31001400    -0.03500
C218        C  0.44683628  0.05572748  0.35095233    -0.17000
C219        C  0.46218765  0.08791555  0.35767579    -0.15000
H220        H  0.48201743  0.15161884  0.35204642     0.20400
H221        H  0.42130238  0.08215420  0.25134646     0.16500
H222        H  0.42389838  0.13554094  0.22465591     0.19000
H223        H  0.47402307  0.09875884  0.38207153     0.12300
C224        C  0.57471426  0.46056583  0.33513950     0.16200
C225        C  0.60148708  0.45811965  0.32906270    -0.32900
C226        C  0.61585844  0.46770297  0.29606085     0.20600
C227        C  0.60352982  0.47820274  0.26976092     0.02800
C228        C  0.57636549  0.48010879  0.27563301    -0.22600
C229        C  0.56259027  0.47158227  0.30913663     0.11900
S230        S  0.55621222  0.45362204  0.37473059    -0.06200
C231        C  0.53239512  0.46665164  0.35660297    -0.09700
C232        C  0.53811870  0.47497177  0.32126176    -0.26300
S233        S  0.62551701  0.49038308  0.23225225    -0.03500
C234        C  0.65202106  0.48203186  0.25261699    -0.17000
C235        C  0.64357891  0.46975438  0.28636883    -0.15000
H236        H  0.61149625  0.45045181  0.34971913     0.20400
H237        H  0.56719392  0.48918080  0.25551806     0.16500
H238        H  0.52612113  0.48450830  0.30581422     0.19000
H239        H  0.65745533  0.46354303  0.30336204     0.12300
C240        C  0.78153329  0.47801375  0.30720831     0.16200
C241        C  0.79267821  0.46963879  0.33705311    -0.32900
C242        C  0.82415566  0.47767710  0.33754654     0.20600
C243        C  0.84374840  0.49318086  0.30945454     0.02800
C244        C  0.83246275  0.50129968  0.27928782    -0.22600
C245        C  0.80087495  0.49342251  0.27888304     0.11900
S246        S  0.74439749  0.47132499  0.30255847    -0.06200
C247        C  0.75459195  0.48934739  0.26179479    -0.09700
C248        C  0.78546869  0.49990876  0.25251982    -0.26300
S249        S  0.88158723  0.50198128  0.31623178    -0.03500
C250        C  0.87082452  0.48484537  0.35744432    -0.17000
C251        C  0.83943699  0.47267854  0.36494906    -0.15000
H252        H  0.77757715  0.45785298  0.35921118     0.20400
H253        H  0.84771214  0.51364640  0.25742369     0.16500
H254        H  0.79614054  0.51203448  0.22818267     0.19000
H255        H  0.82851438  0.46155363  0.38961084     0.12300
C256        C  0.60558911  0.53596908  0.00151462     0.16200
C257        C  0.63666926  0.54296335  0.00579247    -0.32900
C258        C  0.64504024  0.53498720  0.03809464     0.20600
C259        C  0.62355195  0.52143501  0.06513449     0.02800
C260        C  0.59262793  0.51466273  0.06095458    -0.22600
C261        C  0.58410103  0.52189093  0.02844624     0.11900
S262        S  0.58999677  0.54079235  0.46330770    -0.06200
C263        C  0.55398994  0.52270002  0.48349096    -0.09700
C264        C  0.55452388  0.51438435  0.01834760    -0.26300
S265        S  0.63776961  0.51285777  0.10197018    -0.03500
C266        C  0.67309405  0.52715972  0.08077266    -0.17000
C267        C  0.67360475  0.53824232  0.04685696    -0.15000
H268        H  0.65329761  0.55319408  0.98450376     0.20400
H269        H  0.57570583  0.50332450  0.08177637     0.16500
H270        H  0.53407873  0.50173323  0.03476261     0.19000
H271        H  0.69360756  0.54785110  0.02950991     0.12300
C272        C  0.81605447  0.54284359  0.03430175     0.16200
C273        C  0.83562209  0.54750694  0.50537540    -0.32900
C274        C  0.85961428  0.54002302  0.50978550     0.20600
C275        C  0.86421917  0.52902208  0.04175494     0.02800
C276        C  0.84533261  0.52532289  0.07088019    -0.22600
C277        C  0.82101925  0.53213166  0.06627084     0.11900
S278        S  0.78367294  0.54728330  0.03359209    -0.06200
C279        C  0.77680443  0.53450297  0.07683289    -0.09700
C280        C  0.79879854  0.52754376  0.09076319    -0.26300
S281        S  0.89151487  0.51714848  0.04076639    -0.03500
C282        C  0.89665136  0.52663270  0.49664288    -0.17000
C283        C  0.87867520  0.53929567  0.48384027    -0.15000
H284        H  0.83140332  0.55513660  0.48014887     0.20400
H285        H  0.84846376  0.51601297  0.09555014     0.16500
H286        H  0.79803356  0.51858246  0.11710143     0.19000
H287        H  0.87750889  0.54484938  0.45643206     0.12300
C288        C  0.62427195  0.11295358  0.06406694     0.16200
C289        C  0.59373951  0.08848513  0.05830402    -0.32900
C290        C  0.58694508  0.07290158  0.02572422     0.20600
C291        C  0.60958267  0.08093385  0.00006631     0.02800
C292        C  0.64026173  0.10537597  0.00591887    -0.22600
C293        C  0.64697499  0.12134946  0.03839374     0.11900
S294        S  0.63669867  0.13545016  0.10133524    -0.06200
C295        C  0.67294299  0.15687792  0.08218560    -0.09700
C296        C  0.67498113  0.14663318  0.04860923    -0.26300
S297        S  0.59585373  0.06038791  0.46142954    -0.03500
C298        C  0.55911700  0.04129001  0.47986960    -0.17000
C299        C  0.55812733  0.05015121  0.51439872    -0.15000
H300        H  0.57584235  0.08236578  0.07805731     0.20400
H301        H  0.65790182  0.11219322  0.98571726     0.16500
H302        H  0.69573077  0.15729179  0.03240942     0.19000
H303        H  0.53703226  0.04169128  0.52980966     0.12300
C304        C  0.81542054  0.28370817  0.03607751     0.16200
C305        C  0.83455563  0.29871184  0.50682645    -0.34700
C306        C  0.85876084  0.33002685  0.51109081     0.20600
C307        C  0.86398743  0.34541402  0.04322104     0.02800
C308        C  0.84551690  0.33008772  0.07263699    -0.22600
C309        C  0.82096713  0.29911183  0.06818025     0.11900
S310        S  0.78280081  0.24714356  0.03553873    -0.06200
C311        C  0.77650440  0.25280466  0.07899252    -0.09700
C312        C  0.79893985  0.28145780  0.09291175    -0.26300
S313        S  0.89152590  0.38448728  0.04206892    -0.03500
C314        C  0.89595099  0.38033808  0.49771836    -0.17000
C315        C  0.87753114  0.34986612  0.48494948    -0.15000
H316        H  0.82984476  0.28708334  0.48151030     0.20400
H317        H  0.84911581  0.34233793  0.09743072     0.16500
H318        H  0.79854304  0.28950364  0.11936356     0.19000
H319        H  0.87595197  0.34329992  0.45748874     0.12300
C320        C  0.56406784  0.09982278  0.29748715     0.16200
C321        C  0.58249575  0.11245814  0.26727392    -0.32900
C322        C  0.60671363  0.14393573  0.26877141     0.20600
C323        C  0.61153889  0.16228674  0.29855322     0.02800
C324        C  0.59248277  0.14998613  0.32827731    -0.22600
C325        C  0.56908722  0.11821537  0.32727082     0.11900
S326        S  0.53679628  0.06097328  0.30289619    -0.06200
C327        C  0.53284345  0.06944027  0.34604197    -0.09700
C328        C  0.55094984  0.10100119  0.35509697    -0.26300
S329        S  0.64390178  0.19867433  0.29679879    -0.03500
C330        C  0.65158011  0.18898255  0.25577054    -0.17000
C331        C  0.62946554  0.15930990  0.24384338    -0.15000
H332        H  0.57929997  0.09787642  0.24445567     0.20400
H333        H  0.59691794  0.16398437  0.35189203     0.16500
H334        H  0.55221607  0.11045668  0.38120431     0.19000
H335        H  0.63090484  0.14888021  0.21925540     0.12300
C336        C  0.78243912  0.31916555  0.30521764     0.16200
C337        C  0.79374288  0.33837925  0.33504260    -0.32900
C338        C  0.82533839  0.36111957  0.33571867     0.20600
C339        C  0.84494954  0.36501110  0.30774555     0.02800
C340        C  0.83344611  0.34598984  0.27742464    -0.22600
C341        C  0.80167881  0.32277111  0.27692394     0.11900
S342        S  0.74520734  0.28925077  0.30086575    -0.06200
C343        C  0.75507190  0.28104247  0.26022203    -0.09700
C344        C  0.78599278  0.30090409  0.25072174    -0.26300
S345        S  0.88307751  0.39290267  0.31519072    -0.03500
C346        C  0.87225653  0.39875891  0.35653809    -0.17000
C347        C  0.84071602  0.38050034  0.36348269    -0.15000
H348        H  0.77869315  0.33516805  0.35720572     0.20400
H349        H  0.84868771  0.34862756  0.25567021     0.16500
H350        H  0.79648868  0.29909700  0.22645576     0.19000
H351        H  0.82973624  0.38053314  0.38813649     0.12300
C352        C  0.24826955  0.41014481  0.31241378     0.16200
C353        C  0.26316659  0.40375543  0.34025040    -0.32900
C354        C  0.29579314  0.42174881  0.34217116     0.20600
C355        C  0.31280443  0.44540333  0.31785007     0.02800
C356        C  0.29796359  0.45134809  0.28967567    -0.22600
C357        C  0.26542668  0.43303768  0.28741871     0.11900
S358        S  0.20881485  0.39229044  0.30637973    -0.06200
C359        C  0.21562697  0.41549426  0.26938148    -0.09700
C360        C  0.24685454  0.43581930  0.26236253    -0.26300
S361        S  0.35197940  0.46586086  0.32594355    -0.03500
C362        C  0.34551548  0.44156329  0.36177250    -0.17000
C363        C  0.31452231  0.41922295  0.36726447    -0.15000
H364        H  0.24990072  0.38580348  0.35976962     0.20400
H365        H  0.31118470  0.46971238  0.27052888     0.16500
H366        H  0.25546765  0.45271171  0.24085097     0.19000
H367        H  0.30609537  0.40253292  0.38896749     0.12300
C368        C  0.03249739  0.42663053  0.29892317     0.16200
C369        C  0.05227160  0.43033574  0.27066571    -0.32900
C370        C  0.07265169  0.41807830  0.27460730     0.20600
C371        C  0.07319841  0.40256230  0.30511213     0.02800
C372        C  0.05265693  0.39787004  0.33285643    -0.22600
C373        C  0.03245449  0.41034533  0.32903152     0.11900
S374        S  0.00920485  0.44355590  0.30144880    -0.06200
C375        C  0.99906070  0.42815788  0.34333681    -0.09700
C376        C  0.01284628  0.41062133  0.35429133    -0.26300
S377        S  0.10190102  0.39244266  0.30614169    -0.03500
C378        C  0.11312986  0.40909375  0.26488026    -0.17000
C379        C  0.09518589  0.42145569  0.25123491    -0.15000
H380        H  0.05275244  0.44340802  0.24731889     0.20400
H381        H  0.05330856  0.38622789  0.35693650     0.16500
H382        H  0.01043407  0.40060377  0.38038381     0.19000
H383        H  0.09934877  0.43364638  0.22621821     0.12300
C384        C  0.32081946  0.45860473  0.03744817     0.16200
C385        C  0.30022274  0.44736910  0.06624651    -0.32900
C386        C  0.27774396  0.45718234  0.06890312     0.20600
C387        C  0.27582199  0.47701511  0.04382454     0.02800
C388        C  0.29657759  0.48855202  0.01553623    -0.22600
C389        C  0.31906668  0.47902452  0.01309151     0.11900
S390        S  0.34914538  0.44886379  0.02822741    -0.06200
C391        C  0.35887946  0.47316325  0.49177471    -0.09700
C392        C  0.34092850  0.48764694  0.48719996    -0.26300
S393        S  0.24614841  0.48489366  0.05008520    -0.03500
C394        C  0.23610857  0.46156332  0.08729257    -0.17000
C395        C  0.25509449  0.44847296  0.09433955    -0.15000
H396        H  0.30142676  0.43145817  0.08543805     0.20400
H397        H  0.29503667  0.50403084  0.49603025     0.16500
H398        H  0.34331910  0.50321862  0.46548700     0.19000
H399        H  0.25184691  0.43265691  0.11608790     0.12300
C400        C  0.07933897  0.47509249  0.00337386     0.16200
C401        C  0.10918936  0.48132987  0.01325027    -0.32900
C402        C  0.11220455  0.46825974  0.04492854     0.20600
C403        C  0.08673914  0.45015131  0.06630867     0.02800
C404        C  0.05669118  0.44375980  0.05632003    -0.22600
C405        C  0.05357615  0.45646305  0.02417627     0.11900
S406        S  0.07113805  0.48842779  0.46552659    -0.06200
C407        C  0.03238344  0.46834144  0.47721759    -0.09700
C408        C  0.02634946  0.45232577  0.50914540    -0.26300
S409        S  0.09570049  0.43640569  0.10369115    -0.03500
C410        C  0.13396391  0.45469769  0.08974009    -0.17000
C411        C  0.13922044  0.47085351  0.05811613    -0.15000
H412        H  0.12920473  0.49548522  0.99669374     0.20400
H413        H  0.03662547  0.42924177  0.07263384     0.16500
H414        H  0.00340739  0.43843066  0.52060609     0.19000
H415        H  0.16163763  0.48352630  0.04514021     0.12300
C416        C  0.09321504  0.64329684  0.06275695     0.16200
C417        C  0.06312815  0.61863436  0.05471078    -0.32900
C418        C  0.05739765  0.60685133  0.02006986     0.20600
C419        C  0.08077018  0.61889631  0.49485558     0.02800
C420        C  0.11064756  0.64360401  0.50280122    -0.22600
C421        C  0.11624475  0.65553197  0.03719288     0.11900
S422        S  0.10502079  0.66128464  0.10295134    -0.06200
C423        C  0.14119537  0.68580643  0.08485864    -0.09700
C424        C  0.14370780  0.67983459  0.04964500    -0.26300
S425        S  0.06990090  0.60091693  0.45484540    -0.03500
C426        C  0.03324738  0.57694252  0.47185215    -0.17000
C427        C  0.02979462  0.58287279  0.00685322    -0.15000
H428        H  0.04501221  0.60910658  0.07452859     0.20400
H429        H  0.12877820  0.65312697  0.48299229     0.16500
H430        H  0.16445582  0.69287309  0.03378218     0.19000
H431        H  0.00859044  0.56983950  0.02197671     0.12300
C432        C  0.28243097  0.80687657  0.04066072     0.16200
C433        C  0.30238627  0.81744423  0.51173887    -0.32900
C434        C  0.32374809  0.84972120  0.50960914     0.20600
C435        C  0.32527011  0.87099395  0.03482415     0.02800
C436        C  0.30533434  0.86032264  0.06425771    -0.22600
C437        C  0.28395128  0.82766743  0.06660170     0.11900
S438        S  0.25410429  0.76871744  0.04651874    -0.06200
C439        C  0.24391705  0.78040168  0.08461521    -0.09700
C440        C  0.26198710  0.81238852  0.09241881    -0.26300
S441        S  0.35296758  0.90952008  0.02610970    -0.03500
C442        C  0.36274337  0.89610134  0.48885300    -0.17000
C443        C  0.34508061  0.86385470  0.48351210    -0.15000
H444        H  0.30119399  0.80116048  0.49157744     0.20400
H445        H  0.30630310  0.87665081  0.08421213     0.16500
H446        H  0.25838971  0.82396151  0.11482210     0.19000
H447        H  0.34777595  0.85128239  0.46147191     0.12300
C448        C  0.03697147  0.60942288  0.29613669     0.16200
C449        C  0.05801933  0.62406535  0.26838959    -0.32900
C450        C  0.08017763  0.65619191  0.27221305     0.20600
C451        C  0.08130216  0.67298025  0.30220096     0.02800
C452        C  0.05973766  0.65860681  0.32939670    -0.22600
C453        C  0.03764360  0.62657594  0.32559789     0.11900
S454        S  0.01079663  0.56985670  0.29884330    -0.06200
C455        C  0.00043985  0.57683580  0.33978739    -0.09700
C456        C  0.01635986  0.60812997  0.35037277    -0.26300
S457        S  0.11155617  0.71084200  0.30332720    -0.03500
C458        C  0.12271971  0.70418374  0.26276298    -0.17000
C459        C  0.10369324  0.67416812  0.24919311    -0.15000
H460        H  0.05787701  0.61078358  0.24549053     0.20400
H461        H  0.06079482  0.67152315  0.35301276     0.16500
H462        H  0.01414779  0.61652813  0.37601906     0.19000
H463        H  0.10758307  0.66557882  0.22449076     0.12300
C464        C  0.25648720  0.83811561  0.31169895     0.16200
C465        C  0.27008629  0.86026552  0.33895886    -0.32900
C466        C  0.30274604  0.87823979  0.33994172     0.20600
C467        C  0.32103127  0.87390790  0.31527733     0.02800
C468        C  0.30741394  0.85218851  0.28767824    -0.22600
C469        C  0.27477292  0.83461768  0.28633541     0.11900
S470        S  0.21740121  0.81330514  0.30648913    -0.06200
C471        C  0.22571794  0.79869200  0.26915584    -0.09700
C472        C  0.25723101  0.81228248  0.26160191    -0.26300
S473        S  0.36019562  0.89623194  0.32250487    -0.03500
C474        C  0.35192934  0.91229650  0.35851995    -0.17000
C475        C  0.32039490  0.90064060  0.36459569    -0.15000
H476        H  0.25586952  0.86315856  0.35867125     0.20400
H477        H  0.32164456  0.84890887  0.26830576     0.16500
H478        H  0.26680763  0.80568352  0.23965001     0.19000
H479        H  0.31093834  0.90726804  0.38663599     0.12300
C480        C  0.43921703  0.63977070  0.29811240     0.16200
C481        C  0.43387987  0.62149105  0.32855627    -0.32900
C482        C  0.43978914  0.59610269  0.32693384     0.20600
C483        C  0.45015355  0.58882434  0.29628311     0.02800
C484        C  0.45484459  0.60675184  0.26549081    -0.22600
C485        C  0.44936273  0.63253527  0.26725117     0.11900
S486        S  0.43587661  0.67303360  0.29584046    -0.06200
C487        C  0.44844180  0.67757915  0.25280193    -0.09700
C488        C  0.45444744  0.65405924  0.24094803    -0.26300
S489        S  0.45813675  0.55840341  0.30083553    -0.03500
C490        C  0.44752687  0.55574283  0.34449355    -0.17000
C491        C  0.43793220  0.57704868  0.35448615    -0.15000
H492        H  0.42643634  0.62742909  0.35277735     0.20400
H493        H  0.46335263  0.60149778  0.24162512     0.16500
H494        H  0.46306555  0.65334307  0.21496070     0.19000
H495        H  0.43114695  0.57934700  0.38094320     0.12300
C496        C  0.44288930  0.84572834  0.32733858     0.16200
C497        C  0.43744918  0.81499412  0.32164364    -0.32900
C498        C  0.44730344  0.80877792  0.28965851     0.20600
C499        C  0.46148116  0.83199089  0.26406805     0.02800
C500        C  0.46696753  0.86292548  0.26978149    -0.22600
C501        C  0.45754409  0.86932255  0.30221628     0.11900
S502        S  0.43395058  0.85780988  0.36527618    -0.06200
C503        C  0.45071523  0.89544309  0.34784285    -0.09700
C504        C  0.46212040  0.89816145  0.31385844    -0.26300
S505        S  0.47167159  0.81934166  0.22704398    -0.03500
C506        C  0.45708116  0.78261686  0.24666878    -0.17000
C507        C  0.44485648  0.78051469  0.27995697    -0.15000
H508        H  0.42649369  0.79682852  0.34159861     0.20400
H509        H  0.47849291  0.88124252  0.25011894     0.16500
H510        H  0.47394249  0.92004146  0.29907318     0.19000
H511        H  0.43475320  0.75944695  0.29624483     0.12300
C512        C  0.50242013  0.66775353  0.02598906     0.16200
C513        C  0.50715557  0.65313826  0.99669782    -0.32900
C514        C  0.49985719  0.62147308  0.00028628     0.20600
C515        C  0.48871402  0.60518658  0.03176599     0.02800
C516        C  0.48488517  0.62010148  0.06138053    -0.22600
C517        C  0.49172593  0.65162011  0.05761398     0.11900
S518        S  0.50676874  0.70486931  0.02585964    -0.06200
C519        C  0.49397887  0.69861051  0.06888401    -0.09700
C520        C  0.48714775  0.66933096  0.08247004    -0.26300
S521        S  0.47739003  0.56591069  0.52944355    -0.03500
C522        C  0.48768699  0.57147038  0.48557988    -0.17000
C523        C  0.49990175  0.60235735  0.47382144    -0.15000
H524        H  0.51484572  0.66544399  0.97178245     0.20400
H525        H  0.47559158  0.60727760  0.08574153     0.16500
H526        H  0.47816981  0.66097617  0.10865977     0.19000
H527        H  0.50597795  0.60984018  0.44672085     0.12300
C528        C  0.47963382  0.84002634  0.05609478     0.16200
C529        C  0.47306846  0.86479634  0.05186794    -0.32900
C530        C  0.48363233  0.88297613  0.02113782     0.20600
C531        C  0.50036883  0.87702928  0.49585071     0.02800
C532        C  0.50677791  0.85201988  0.99997054    -0.22600
C533        C  0.49581508  0.83351989  0.03060552     0.11900
S534        S  0.46858957  0.81543834  0.09154602    -0.06200
C535        C  0.48548964  0.79566179  0.07182020    -0.09700
C536        C  0.49906386  0.80777978  0.03935808    -0.26300
S537        S  0.51011971  0.90119177  0.45990305    -0.03500
C538        C  0.49083138  0.91899202  0.47883854    -0.17000
C539        C  0.47804696  0.90697115  0.01153510    -0.15000
H540        H  0.45994421  0.86944782  0.07151632     0.20400
H541        H  0.51935816  0.84698023  0.47998016     0.16500
H542        H  0.51081505  0.79847720  0.02328050     0.19000
H543        H  0.46415492  0.91436150  0.02669283     0.12300
C544        C  0.48889665  0.72179681  0.58853372     0.80500
N545        N  0.48094779  0.71695732  0.62329579    -0.77900
C546        C  0.47537048  0.73793322  0.64098130     0.82900
N547        N  0.47728721  0.76327023  0.62375736    -0.77800
C548        C  0.48502031  0.76833729  0.58928573     0.83000
N549        N  0.49100785  0.74761201  0.57161949    -0.79500
C550        C  0.45400099  0.70550547  0.73178668     0.80500
N551        N  0.45213721  0.72958974  0.74773153    -0.77900
C552        C  0.45811202  0.75603494  0.72940532     0.82900
N553        N  0.46567632  0.75814787  0.69493749    -0.77800
C554        C  0.46741601  0.73428198  0.67853932     0.83000
N555        N  0.46177738  0.70792773  0.69702697    -0.79500
C556        C  0.20115762  0.77303209  0.74810301     0.80500
N557        N  0.20571400  0.76946121  0.71340136    -0.77900
C558        C  0.18293294  0.74531965  0.69453447     0.82900
N559        N  0.15604605  0.72443640  0.71069174    -0.77800
C560        C  0.15135360  0.72778421  0.74519751     0.83000
N561        N  0.17383289  0.75229294  0.76372819    -0.79500
C562        C  0.21620936  0.75801198  0.60455863     0.80500
N563        N  0.19317486  0.73277462  0.58747027    -0.77900
C564        C  0.16677433  0.71199160  0.60449385     0.82900
N565        N  0.16372734  0.71636004  0.63923893    -0.77800
C566        C  0.18683764  0.74129610  0.65685431     0.83000
N567        N  0.21298549  0.76236311  0.63934296    -0.79500
C568        C  0.15870166  0.45178412  0.60846518     0.80500
N569        N  0.18543733  0.45863062  0.59143285    -0.77900
C570        C  0.20796459  0.45473222  0.60749870     0.82900
N571        N  0.20390702  0.44432065  0.64145198    -0.77800
C572        C  0.17734609  0.43794418  0.65901389     0.83000
N573        N  0.15473584  0.44140295  0.64226118    -0.79500
C574        C  0.14106907  0.41256471  0.74680675     0.80500
N575        N  0.14601414  0.42172541  0.71255525    -0.77900
C576        C  0.17272049  0.42763348  0.69605632     0.82900
N577        N  0.19514293  0.42511379  0.71437010    -0.77800
C578        C  0.19041055  0.41579111  0.74874352     0.83000
N579        N  0.16326135  0.40937734  0.76480721    -0.79500
C580        C  0.73157505  0.25409299  0.73932565     0.80500
N581        N  0.73684108  0.24806448  0.70568735    -0.77900
C582        C  0.71405473  0.22277110  0.68785299     0.82900
N583        N  0.68632468  0.20362383  0.70394331    -0.77800
C584        C  0.68102714  0.20971212  0.73732981     0.83000
N585        N  0.70366771  0.23488404  0.75459807    -0.79500
C586        C  0.74850544  0.23017797  0.59881802     0.80500
N587        N  0.74494578  0.23597468  0.63311371    -0.77900
C588        C  0.71859312  0.21614575  0.65100826     0.82900
N589        N  0.69559952  0.19054046  0.63425800    -0.77800
C590        C  0.69882741  0.18435672  0.60008377     0.83000
N591        N  0.72537828  0.20430434  0.58244775    -0.79500
C592        C  0.69959554  0.52637204  0.59812138     0.80500
N593        N  0.72571522  0.53211238  0.58011328    -0.77900
C594        C  0.74906245  0.52972116  0.59674905     0.82900
N595        N  0.74610013  0.52157718  0.63155914    -0.77800
C596        C  0.72012744  0.51604011  0.64962806     0.83000
N597        N  0.69709099  0.51833712  0.63264586    -0.79500
C598        C  0.68191533  0.48910913  0.73616769     0.80500
N599        N  0.68795383  0.49925118  0.70234927    -0.77900
C600        C  0.71549105  0.50624308  0.68695539     0.82900
N601        N  0.73752808  0.50331575  0.70592863    -0.77800
C602        C  0.73165552  0.49319153  0.74010281     0.83000
N603        N  0.70381600  0.48607326  0.75481491    -0.79500
C604        C  0.44137771  0.19950476  0.74062008     0.80500
N605        N  0.43403913  0.19654197  0.70590410    -0.77900
C606        C  0.42759493  0.21774449  0.68969691     0.82900
N607        N  0.42796272  0.24175325  0.70862505    -0.77800
C608        C  0.43516820  0.24460420  0.74355294     0.83000
N609        N  0.44207218  0.22361825  0.75907332    -0.79500
C610        C  0.41757445  0.18806534  0.59854946     0.80500
N611        N  0.41092142  0.20853022  0.58087430    -0.77900
C612        C  0.41004558  0.23254440  0.59854244     0.82900
N613        N  0.41542169  0.23561942  0.63392439    -0.77800
C614        C  0.42141322  0.21484757  0.65162492     0.83000
N615        N  0.42276206  0.19148865  0.63372482    -0.79500
O616        O  0.44080106  0.53288694  0.90112763    -0.79900
O617        O  0.45026009  0.41557379  0.91422661    -0.79900
O618        O  0.49808453  0.48733441  0.86673069    -0.79900
O619        O  0.36793679  0.42233227  0.90390928    -0.79900
O620        O  0.50823541  0.46414472  0.91114207    -0.80000
O621        O  0.39584907  0.47256940  0.88817987    -0.79900
O622        O  0.42333608  0.42896994  0.87767222    -0.79900
O623        O  0.46426723  0.51925615  0.86225974    -0.79900
C624        C  0.45061170  0.53460476  0.87010661     1.09800
C625        C  0.43695872  0.41312241  0.88448463     1.09700
C626        C  0.51106947  0.47227598  0.87882806     1.09800
C627        C  0.37064511  0.44547301  0.88572005     1.09700
O628        O  0.39526297  0.50262226  0.94760049    -0.79900
O629        O  0.49959509  0.49005552  0.97603687    -0.80000
O630        O  0.49111632  0.54890550  0.93115493    -0.79900
O631        O  0.40369400  0.40829214  0.94737389    -0.79900
O632        O  0.44094391  0.43875982  0.98256298    -0.79900
O633        O  0.45446241  0.51863964  0.96934468    -0.79900
O634        O  0.39275116  0.45748329  0.96253267    -0.79900
O635        O  0.52618003  0.51994898  0.93121306    -0.79900
Co636      Co  0.42644790  0.49424299  0.93070689     1.51500
Co637      Co  0.47347803  0.45356813  0.94574536     1.51700
Co638      Co  0.49224594  0.51640081  0.89835279     1.51600
Co639      Co  0.41041036  0.44554470  0.91783850     1.51500
O640        O  0.45590944  0.47834107  0.92184441    -1.41800
C641        C  0.38327372  0.47791845  0.96630361     1.09700
C642        C  0.52491845  0.51134154  0.96314567     1.09800
C643        C  0.47810264  0.54474960  0.96134811     1.09700
C644        C  0.41747419  0.41224924  0.97656648     1.09700
O645        O  0.01683923  0.54108394  0.92453260    -0.79900
O646        O  0.91427795  0.43398932  0.98365101    -0.79900
O647        O  0.92220669  0.52660597  0.94305799    -0.79900
O648        O  0.98005912  0.44975027  0.95797548    -0.79900
O649        O  0.91434761  0.49084126  0.98304970    -0.80000
O650        O  0.01689979  0.48695074  0.92795900    -0.79900
O651        O  0.92190491  0.40582138  0.94429175    -0.79900
O652        O  0.98043839  0.54099390  0.95555285    -0.79900
C653        C  0.00889166  0.55166059  0.95022549     1.09800
C654        C  0.91236174  0.40809612  0.97456839     1.09700
C655        C  0.91274893  0.51498044  0.97354867     1.09800
C656        C  0.00851170  0.46841364  0.95383979     1.09700
O657        O  0.98128339  0.46347206  0.86370221    -0.79900
O658        O  0.88423970  0.47494859  0.91455089    -0.80000
O659        O  0.96823071  0.55737506  0.89024667    -0.79900
O660        O  0.92336127  0.43469313  0.87696525    -0.79900
O661        O  0.88499041  0.42013770  0.91428400    -0.79900
O662        O  0.97925898  0.52392950  0.86195527    -0.79900
O663        O  0.96842417  0.41961154  0.89437872    -0.79900
O664        O  0.92184406  0.49748161  0.87630543    -0.79900
Co665      Co  0.99230337  0.50072278  0.89817447     1.51500
Co666      Co  0.90290579  0.45664123  0.94823071     1.51700
Co667      Co  0.95251547  0.51869370  0.91521975     1.51600
Co668      Co  0.95301817  0.44386426  0.91683353     1.51500
O669        O  0.94880513  0.47946427  0.93139874    -1.41800
C670        C  0.98203981  0.43730777  0.86813752     1.09700
C671        C  0.89331888  0.48525638  0.88365277     1.09800
C672        C  0.98145216  0.55159992  0.86477902     1.09700
C673        C  0.89461625  0.41930000  0.88355045     1.09700
O674        O  0.46099786  0.94441030  0.96777342    -0.79900
O675        O  0.44754739  0.01411327  0.97732543    -0.79900
O676        O  0.53185770  0.01452953  0.92724877    -0.79900
O677        O  0.39726725  0.94534485  0.95880279    -0.79900
O678        O  0.50500232  0.01836521  0.97123867    -0.80000
O679        O  0.40099581  0.90262803  0.94801592    -0.79900
O680        O  0.41028146  0.00588464  0.94110697    -0.79900
O681        O  0.49675219  0.95021316  0.92860361    -0.79900
C682        C  0.48347516  0.94024319  0.95839286     1.09800
C683        C  0.42448372  0.01755464  0.96966999     1.09700
C684        C  0.53049214  0.02256916  0.95891204     1.09800
C685        C  0.38807496  0.91563805  0.96435461     1.09700
O686        O  0.40109365  0.93142416  0.88730654    -0.79900
O687        O  0.51423365  0.05142828  0.90416514    -0.80000
O688        O  0.46900369  0.95041420  0.86034750    -0.79900
O689        O  0.43023494  0.00329236  0.87215103    -0.79900
O690        O  0.45728791  0.04396182  0.90782141    -0.79900
O691        O  0.44485577  0.91548147  0.90140688    -0.79900
O692        O  0.37383986  0.95556260  0.89865363    -0.79900
O693        O  0.50153543  0.01590220  0.86201609    -0.79900
Co694      Co  0.43208954  0.94118630  0.92984345     1.51500
Co695      Co  0.47983672  0.02920226  0.94012358     1.51700
Co696      Co  0.49724759  0.98286317  0.89520410     1.51600
Co697      Co  0.41618620  0.97421803  0.91332261     1.51500
O698        O  0.46137971  0.98580825  0.91858590    -1.41800
C699        C  0.37643730  0.93407833  0.88267664     1.09700
C700        C  0.51470318  0.04441825  0.87188897     1.09800
C701        C  0.45468254  0.92184176  0.87026120     1.09700
C702        C  0.44483951  0.03295391  0.87791567     1.09700
C703        C  0.41277861  0.35175828  0.54461974     0.16200
C704        C  0.41900578  0.33678212  0.57260687    -0.32900
C705        C  0.40973749  0.30461000  0.56890385     0.20600
C706        C  0.39471414  0.28791198  0.53880205     0.02800
C707        C  0.38771161  0.30271536  0.51113201    -0.22600
C708        C  0.39722500  0.33503761  0.51472271     0.11900
S709        S  0.42559598  0.39140566  0.54236714    -0.06200
C710        C  0.40987307  0.38557275  0.00064323    -0.09700
C711        C  0.39500881  0.35427585  0.98956105    -0.26300
S712        S  0.38778775  0.24969472  0.53844940    -0.03500
C713        C  0.40510041  0.25629785  0.57942943    -0.17000
C714        C  0.41538168  0.28653030  0.59242373    -0.15000
H715        H  0.43158233  0.34991417  0.59568815     0.20400
H716        H  0.37633827  0.28991741  0.98736132     0.16500
H717        H  0.38523522  0.34642874  0.96354523     0.19000
H718        H  0.42739740  0.29520520  0.61727005     0.12300
C719        C  0.42926642  0.12005738  0.56486969     0.16200
C720        C  0.43667761  0.09576406  0.56109326    -0.32900
C721        C  0.42626053  0.07715405  0.53059688     0.20600
C722        C  0.40911037  0.08245563  0.50511233     0.02800
C723        C  0.40215431  0.10710710  0.50862799    -0.22600
C724        C  0.41268931  0.12582899  0.53905335     0.11900
S725        S  0.43870249  0.14427836  0.60053187    -0.06200
C726        C  0.42033497  0.16266935  0.58048896    -0.09700
C727        C  0.40781588  0.15058450  0.54764525    -0.26300
S728        S  0.39874579  0.05741787  0.96997597    -0.03500
C729        C  0.41822928  0.03995599  0.98938789    -0.17000
C730        C  0.43175721  0.05291457  0.52163875    -0.15000
H731        H  0.44987585  0.09149426  0.58110779     0.20400
H732        H  0.38905860  0.11145671  0.48854512     0.16500
H733        H  0.39512077  0.15883472  0.53143810     0.19000
H734        H  0.44569002  0.04568604  0.53710351     0.12300
C735        C  0.44466519  0.30725111  0.81064526     0.16200
C736        C  0.45174599  0.32628928  0.84046911    -0.32900
C737        C  0.44338833  0.34990092  0.84019586     0.20600
C738        C  0.42851163  0.35452960  0.81159473     0.02800
C739        C  0.42166109  0.33555388  0.78135172    -0.22600
C740        C  0.43017103  0.31179650  0.78157123     0.11900
S741        S  0.45254001  0.27708203  0.80679304    -0.06200
C742        C  0.43659204  0.27038727  0.76517940    -0.09700
C743        C  0.42556094  0.29064002  0.75506687    -0.26300
S744        S  0.41949602  0.38408034  0.81764708    -0.03500
C745        C  0.43605598  0.38994474  0.85901011    -0.17000
C746        C  0.44796309  0.37017271  0.86718989    -0.15000
H747        H  0.46307349  0.32267318  0.86307891     0.20400
H748        H  0.41007168  0.33897732  0.75888687     0.16500
H749        H  0.41460935  0.28975078  0.73001890     0.19000
H750        H  0.45895836  0.37021784  0.89194691     0.12300
C751        C  0.46157239  0.14902027  0.80085759     0.16200
C752        C  0.46956802  0.13676347  0.82988858    -0.32900
C753        C  0.45915482  0.10429772  0.83022734     0.20600
C754        C  0.44221354  0.08476662  0.80256747     0.02800
C755        C  0.43510248  0.09730181  0.77277176    -0.22600
C756        C  0.44488152  0.12984688  0.77280025     0.11900
S757        S  0.46848051  0.18689419  0.79815351    -0.06200
C758        C  0.44855277  0.17706755  0.75879334    -0.09700
C759        C  0.43775360  0.14606900  0.74809601    -0.26300
S760        S  0.42951631  0.04542292  0.81002911    -0.03500
C761        C  0.44682693  0.05571770  0.85097711    -0.17000
C762        C  0.46217323  0.08790425  0.85770976    -0.15000
H763        H  0.48200509  0.15160813  0.85209231     0.20400
H764        H  0.42133626  0.08216577  0.75135611     0.16500
H765        H  0.42394447  0.13555960  0.72466927     0.19000
H766        H  0.47399831  0.09874262  0.88211108     0.12300
C767        C  0.57474810  0.46060996  0.83516728     0.16200
C768        C  0.60152614  0.45817108  0.82909923    -0.32900
C769        C  0.61589714  0.46774704  0.79609637     0.20600
C770        C  0.60356430  0.47823493  0.76978878     0.02800
C771        C  0.57639630  0.48013553  0.77565292    -0.22600
C772        C  0.56262008  0.47161445  0.80915607     0.11900
S773        S  0.55624046  0.45366725  0.87475428    -0.06200
C774        C  0.53241567  0.46668156  0.85661318    -0.09700
C775        C  0.53814122  0.47499615  0.82127110    -0.26300
S776        S  0.62554657  0.49040183  0.73227662    -0.03500
C777        C  0.65205293  0.48205805  0.75264754    -0.17000
C778        C  0.64361709  0.46979606  0.78640630    -0.15000
H779        H  0.61153767  0.45051084  0.84976201     0.20400
H780        H  0.56722072  0.48919671  0.75553070     0.16500
H781        H  0.52613884  0.48452235  0.80581542     0.19000
H782        H  0.65749578  0.46359000  0.80340365     0.12300
C783        C  0.78153800  0.47797804  0.80720230     0.16200
C784        C  0.79267907  0.46959619  0.83704443    -0.32900
C785        C  0.82415720  0.47763935  0.83754243     0.20600
C786        C  0.84375433  0.49315395  0.80945700     0.02800
C787        C  0.83247272  0.50128000  0.77929290    -0.22600
C788        C  0.80088406  0.49339823  0.77888376     0.11900
S789        S  0.74440217  0.47128670  0.80255018    -0.06200
C790        C  0.75460278  0.48932451  0.76179526    -0.09700
C791        C  0.78548112  0.49989165  0.75252340    -0.26300
S792        S  0.88159328  0.50195990  0.81623973    -0.03500
C793        C  0.87082418  0.48481260  0.85744585    -0.17000
C794        C  0.83943520  0.47263734  0.86494498    -0.15000
H795        H  0.77757468  0.45780240  0.85919779     0.20400
H796        H  0.84772601  0.51363630  0.75743443     0.16500
H797        H  0.79615629  0.51202772  0.72819299     0.19000
H798        H  0.82850980  0.46150601  0.88960307     0.12300
C799        C  0.60559480  0.53596933  0.50153360     0.16200
C800        C  0.63667620  0.54296754  0.50581365    -0.32900
C801        C  0.64504701  0.53499038  0.53811564     0.20600
C802        C  0.62355822  0.52143598  0.56515445     0.02800
C803        C  0.59263305  0.51466144  0.56097292    -0.22600
C804        C  0.58410537  0.52188793  0.52846324     0.11900
S805        S  0.58999080  0.54079665  0.96329188    -0.06200
C806        C  0.55398647  0.52271228  0.98348121    -0.09700
C807        C  0.55452699  0.51437440  0.51835910    -0.26300
S808        S  0.63777655  0.51285528  0.60198816    -0.03500
C809        C  0.67310136  0.52715742  0.58079011    -0.17000
C810        C  0.67361190  0.53824407  0.54687618    -0.15000
H811        H  0.65330401  0.55319888  0.48452685     0.20400
H812        H  0.57570976  0.50332000  0.58179384     0.16500
H813        H  0.53407961  0.50171875  0.53477266     0.19000
H814        H  0.69361289  0.54785267  0.52952964     0.12300
C815        C  0.81608500  0.54287346  0.53432958     0.16200
C816        C  0.83558502  0.54746787  0.00534390    -0.32900
C817        C  0.85958687  0.53999901  0.00975891     0.20600
C818        C  0.86423261  0.52902492  0.54177449     0.02800
C819        C  0.84534105  0.52531839  0.57089704    -0.22600
C820        C  0.82103602  0.53214023  0.56629164     0.11900
S821        S  0.78370794  0.54732166  0.53362052    -0.06200
C822        C  0.77682208  0.53451478  0.57685146    -0.09700
C823        C  0.79880862  0.52754283  0.59077880    -0.26300
S824        S  0.89151475  0.51713335  0.54077728    -0.03500
C825        C  0.89663898  0.52662777  0.99662669    -0.17000
C826        C  0.87864793  0.53927021  0.98381528    -0.15000
H827        H  0.83135606  0.55508176  0.98011264     0.20400
H828        H  0.84846050  0.51599055  0.59556163     0.16500
H829        H  0.79803244  0.51856392  0.61711043     0.19000
H830        H  0.87747310  0.54480935  0.95640293     0.12300
C831        C  0.62427024  0.11297749  0.56402890     0.16200
C832        C  0.59373774  0.08850921  0.55826784    -0.32900
C833        C  0.58694513  0.07291654  0.52569405     0.20600
C834        C  0.60958365  0.08094063  0.50003918     0.02800
C835        C  0.64026352  0.10538349  0.50588972    -0.22600
C836        C  0.64697544  0.12136541  0.53835988     0.11900
S837        S  0.63669430  0.13548021  0.60129238    -0.06200
C838        C  0.67294159  0.15689969  0.58214825    -0.09700
C839        C  0.67498226  0.14664865  0.54857585    -0.26300
S840        S  0.59585284  0.06039340  0.96145010    -0.03500
C841        C  0.55911669  0.04128991  0.97989014    -0.17000
C842        C  0.55812689  0.05013970  0.01442463    -0.15000
H843        H  0.57584039  0.08239600  0.57801745     0.20400
H844        H  0.65790432  0.11219362  0.48569186     0.16500
H845        H  0.69573537  0.15730137  0.53237981     0.19000
H846        H  0.53703187  0.04167435  0.02983673     0.12300
C847        C  0.81544382  0.28369722  0.53606833     0.16200
C848        C  0.83453105  0.29872688  0.00683562    -0.34700
C849        C  0.85874133  0.33003914  0.01110529     0.20600
C850        C  0.86400381  0.34540663  0.54320315     0.02800
C851        C  0.84553469  0.33008295  0.57262043    -0.22600
C852        C  0.82098692  0.29910587  0.56816761     0.11900
S853        S  0.78282124  0.24713550  0.53552968    -0.06200
C854        C  0.77651812  0.25280505  0.57897821    -0.09700
C855        C  0.79895445  0.28145770  0.59289653    -0.26300
S856        S  0.89152910  0.38448361  0.54204212    -0.03500
C857        C  0.89595210  0.38034639  0.99774493    -0.17000
C858        C  0.87752031  0.34987872  0.98496871    -0.15000
H859        H  0.82981914  0.28710158  0.98151721     0.20400
H860        H  0.84912963  0.34233820  0.59741113     0.16500
H861        H  0.79855302  0.28950907  0.61934548     0.19000
H862        H  0.87594244  0.34331643  0.95750765     0.12300
C863        C  0.56407158  0.09980531  0.79749039     0.16200
C864        C  0.58250247  0.11243202  0.76727706    -0.32900
C865        C  0.60671740  0.14391179  0.76876417     0.20600
C866        C  0.61153729  0.16227168  0.79853693     0.02800
C867        C  0.59247926  0.14997914  0.82826128    -0.22600
C868        C  0.56908596  0.11820697  0.82726499     0.11900
S869        S  0.53680037  0.06095746  0.80291136    -0.06200
C870        C  0.53284087  0.06943693  0.84605063    -0.09700
C871        C  0.55094534  0.10100094  0.85509421    -0.26300
S872        S  0.64389539  0.19866193  0.79677273    -0.03500
C873        C  0.65157919  0.18896112  0.75575205    -0.17000
C874        C  0.62946989  0.15928216  0.74383442    -0.15000
H875        H  0.57930982  0.09784276  0.74446591     0.20400
H876        H  0.59691026  0.16398484  0.85186770     0.16500
H877        H  0.55220784  0.11046459  0.88119660     0.19000
H878        H  0.63091343  0.14884628  0.71925246     0.12300
C879        C  0.78245407  0.31907817  0.80527482     0.16200
C880        C  0.79376096  0.33826616  0.83511879    -0.32900
C881        C  0.82534819  0.36103220  0.83578409     0.20600
C882        C  0.84494936  0.36496934  0.80778460     0.02800
C883        C  0.83344327  0.34597075  0.77744714    -0.22600
C884        C  0.80168348  0.32272930  0.77695455     0.11900
S885        S  0.74522908  0.28914988  0.80092194    -0.06200
C886        C  0.75508144  0.28099706  0.76024121    -0.09700
C887        C  0.78599466  0.30088576  0.75073142    -0.26300
S888        S  0.88306889  0.39289570  0.81521147    -0.03500
C889        C  0.87225822  0.39870976  0.85658376    -0.17000
C890        C  0.84072647  0.38040692  0.86355309    -0.15000
H891        H  0.77871718  0.33502116  0.85730205     0.20400
H892        H  0.84867721  0.34864695  0.75566956     0.16500
H893        H  0.79648283  0.29911675  0.72644064     0.19000
H894        H  0.82975416  0.38041037  0.88822223     0.12300
C895        C  0.24825728  0.41014555  0.81243273     0.16200
C896        C  0.26315925  0.40377902  0.84028159    -0.32900
C897        C  0.29578877  0.42174531  0.84216750     0.20600
C898        C  0.31280027  0.44535447  0.81780046     0.02800
C899        C  0.29795366  0.45127584  0.78961346    -0.22600
C900        C  0.26541208  0.43299098  0.78739248     0.11900
S901        S  0.20880036  0.39231758  0.80643353    -0.06200
C902        C  0.21560607  0.41546692  0.76938906    -0.09700
C903        C  0.24683410  0.43575604  0.76233090    -0.26300
S904        S  0.35198250  0.46579041  0.82585854    -0.03500
C905        C  0.34551835  0.44154292  0.86173576    -0.17000
C906        C  0.31452145  0.41923491  0.86726734    -0.15000
H907        H  0.24989358  0.38586252  0.85983815     0.20400
H908        H  0.31117397  0.46960405  0.77043064     0.16500
H909        H  0.25544578  0.45261347  0.74078463     0.19000
H910        H  0.30609482  0.40258039  0.88900369     0.12300
C911        C  0.03249733  0.42662599  0.79893695     0.16200
C912        C  0.05227096  0.43033002  0.77067961    -0.32900
C913        C  0.07263684  0.41805477  0.77461344     0.20600
C914        C  0.07317086  0.40252321  0.80511075     0.02800
C915        C  0.05262918  0.39783210  0.83285448    -0.22600
C916        C  0.03244088  0.41032512  0.82903736     0.11900
S917        S  0.00922172  0.44356977  0.80147208    -0.06200
C918        C  0.99906582  0.42815817  0.84335326    -0.09700
C919        C  0.01283554  0.41060417  0.85429912    -0.26300
S920        S  0.10186109  0.39238567  0.80613375    -0.03500
C921        C  0.11310160  0.40905080  0.76487989    -0.17000
C922        C  0.09516985  0.42142931  0.75124112    -0.15000
H923        H  0.05276262  0.44341457  0.74733932     0.20400
H924        H  0.05327092  0.38617766  0.85692931     0.16500
H925        H  0.01041434  0.40057586  0.88038494     0.19000
H926        H  0.09934209  0.43363095  0.72623141     0.12300
C927        C  0.32081902  0.45859448  0.53746552     0.16200
C928        C  0.30021057  0.44734207  0.56625339    -0.32900
C929        C  0.27772551  0.45714776  0.56890691     0.20600
C930        C  0.27580828  0.47698799  0.54383497     0.02800
C931        C  0.29657567  0.48854155  0.51555764    -0.22600
C932        C  0.31907181  0.47902271  0.51311658     0.11900
S933        S  0.34915183  0.44886243  0.52824759    -0.06200
C934        C  0.35886247  0.47315009  0.99174318    -0.09700
C935        C  0.34091258  0.48763429  0.98716579    -0.26300
S936        S  0.24612836  0.48485812  0.55009218    -0.03500
C937        C  0.23608088  0.46151651  0.58729123    -0.17000
C938        C  0.25506772  0.44842642  0.59433619    -0.15000
H939        H  0.30141080  0.43142626  0.58543756     0.20400
H940        H  0.29503456  0.50403498  0.99600292     0.16500
H941        H  0.34329893  0.50319933  0.96544771     0.19000
H942        H  0.25181765  0.43260566  0.61608015     0.12300
C943        C  0.07931092  0.47502887  0.50335488     0.16200
C944        C  0.10916027  0.48126124  0.51322886    -0.32900
C945        C  0.11217886  0.46821298  0.54492171     0.20600
C946        C  0.08671771  0.45012910  0.56631728     0.02800
C947        C  0.05666994  0.44374222  0.55633097    -0.22600
C948        C  0.05355134  0.45642464  0.52417294     0.11900
S949        S  0.07116682  0.48850819  0.96555745    -0.06200
C950        C  0.03240873  0.46839140  0.97723173    -0.09700
C951        C  0.02637326  0.45235759  0.00914697    -0.26300
S952        S  0.09568391  0.43640468  0.60371402    -0.03500
C953        C  0.13394272  0.45467098  0.58974720    -0.17000
C954        C  0.13919440  0.47080539  0.55810902    -0.15000
H955        H  0.12917192  0.49539721  0.49666098     0.20400
H956        H  0.03660759  0.42924433  0.57265758     0.16500
H957        H  0.00343046  0.43844179  0.02059389     0.19000
H958        H  0.16160766  0.48345960  0.54512086     0.12300
C959        C  0.09322388  0.64327857  0.56276770     0.16200
C960        C  0.06313721  0.61861433  0.55472439    -0.32900
C961        C  0.05740568  0.60682777  0.52008511     0.20600
C962        C  0.08076265  0.61892242  0.99484096     0.02800
C963        C  0.11063989  0.64362871  0.00278964    -0.22600
C964        C  0.11625268  0.65551180  0.53720250     0.11900
S965        S  0.10502919  0.66127371  0.60295826    -0.06200
C966        C  0.14120148  0.68579752  0.58486166    -0.09700
C967        C  0.14371440  0.67981984  0.54965017    -0.26300
S968        S  0.06989485  0.60094457  0.95482948    -0.03500
C969        C  0.03324174  0.57696660  0.97183553    -0.17000
C970        C  0.02980118  0.58284995  0.50686982    -0.15000
H971        H  0.04502106  0.60908897  0.57454318     0.20400
H972        H  0.12877246  0.65315321  0.98298094     0.16500
H973        H  0.16446068  0.69285884  0.53378564     0.19000
H974        H  0.00859741  0.56982030  0.52199260     0.12300
C975        C  0.28240373  0.80691180  0.54063762     0.16200
C976        C  0.30241837  0.81740530  0.01176486    -0.32900
C977        C  0.32377044  0.84968528  0.00962359     0.20600
C978        C  0.32526257  0.87102550  0.53482430     0.02800
C979        C  0.30533062  0.86035029  0.56426166    -0.22600
C980        C  0.28393703  0.82769650  0.56659362     0.11900
S981        S  0.25407102  0.76875433  0.54648371    -0.06200
C982        C  0.24389753  0.78042877  0.58459645    -0.09700
C983        C  0.26197616  0.81241255  0.59241351    -0.26300
S984        S  0.35297371  0.90954971  0.52612127    -0.03500
C985        C  0.36275356  0.89606913  0.98885628    -0.17000
C986        C  0.34510528  0.86381871  0.98352766    -0.15000
H987        H  0.30123621  0.80111868  0.99161588     0.20400
H988        H  0.30631092  0.87667465  0.58422895     0.16500
H989        H  0.25838962  0.82397891  0.61482904     0.19000
H990        H  0.34781124  0.85124461  0.96149709     0.12300
C991        C  0.03697657  0.60940014  0.79612604     0.16200
C992        C  0.05804136  0.62403688  0.76839168    -0.32900
C993        C  0.08019732  0.65616444  0.77221425     0.20600
C994        C  0.08130417  0.67295883  0.80218975     0.02800
C995        C  0.05972308  0.65859101  0.82937203    -0.22600
C996        C  0.03763064  0.62655926  0.82557355     0.11900
S997        S  0.01080245  0.56983399  0.79883652    -0.06200
C998        C  0.00042275  0.57682032  0.83976449    -0.09700
C999        C  0.01633345  0.60811769  0.85033987    -0.26300
S1000       S  0.11155422  0.71082306  0.80331691    -0.03500
C1001       C  0.12273777  0.70415891  0.76276766    -0.17000
C1002       C  0.10372285  0.67413829  0.74920390    -0.15000
H1003       H  0.05791249  0.61075039  0.74550332     0.20400
H1004       H  0.06076574  0.67151208  0.85297749     0.16500
H1005       H  0.01410840  0.61652133  0.87597832     0.19000
H1006       H  0.10762448  0.66554573  0.72450876     0.12300
C1007       C  0.25648691  0.83809612  0.81171613     0.16200
C1008       C  0.27008677  0.86022037  0.83899933    -0.32900
C1009       C  0.30274555  0.87821265  0.83996598     0.20600
C1010       C  0.32102998  0.87392292  0.81526294     0.02800
C1011       C  0.30741129  0.85223016  0.78764034    -0.22600
C1012       C  0.27477046  0.83464064  0.78631527     0.11900
S1013       S  0.21740310  0.81326457  0.80652357    -0.06200
C1014       C  0.22571667  0.79869748  0.76915009    -0.09700
C1015       C  0.25722768  0.81232075  0.76156822    -0.26300
S1016       S  0.36019588  0.89626296  0.82247307    -0.03500
C1017       C  0.35192970  0.91227888  0.85853232    -0.17000
C1018       C  0.32039496  0.90059448  0.86463627    -0.15000
H1019       H  0.25587155  0.86307992  0.85874177     0.20400
H1020       H  0.32164031  0.84898320  0.76823855     0.16500
H1021       H  0.26680291  0.80575228  0.73959052     0.19000
H1022       H  0.31093995  0.90719100  0.88670371     0.12300
C1023       C  0.43923137  0.63979301  0.79810520     0.16200
C1024       C  0.43388950  0.62151203  0.82854968    -0.32900
C1025       C  0.43980780  0.59612896  0.82693269     0.20600
C1026       C  0.45018738  0.58885932  0.79628775     0.02800
C1027       C  0.45488554  0.60678931  0.76549687    -0.22600
C1028       C  0.44939224  0.63256494  0.76725051     0.11900
S1029       S  0.43587540  0.67304686  0.79582293    -0.06200
C1030       C  0.44845457  0.67759706  0.75278924    -0.09700
C1031       C  0.45447615  0.65408584  0.74094447    -0.26300
S1032       S  0.45817209  0.55844020  0.80084206    -0.03500
C1033       C  0.44753998  0.55576537  0.84449277    -0.17000
C1034       C  0.43794015  0.57706822  0.85448345    -0.15000
H1035       H  0.42643266  0.62744282  0.85276495     0.20400
H1036       H  0.46340438  0.60154059  0.74163515     0.16500
H1037       H  0.46310392  0.65337374  0.71496308     0.19000
H1038       H  0.43114076  0.57935676  0.88093505     0.12300
C1039       C  0.44294957  0.84574620  0.82735369     0.16200
C1040       C  0.43751856  0.81501593  0.82165802    -0.32900
C1041       C  0.44734355  0.80879574  0.78965612     0.20600
C1042       C  0.46148720  0.83200130  0.76405142     0.02800
C1043       C  0.46696584  0.86293346  0.76976612    -0.22600
C1044       C  0.45756924  0.86933413  0.80221698     0.11900
S1045       S  0.43403276  0.85782764  0.86530464    -0.06200
C1046       C  0.45075611  0.89545280  0.84785640    -0.09700
C1047       C  0.46213583  0.89816959  0.81385923    -0.26300
S1048       S  0.47164656  0.81934572  0.72700850    -0.03500
C1049       C  0.45708817  0.78262897  0.74664511    -0.17000
C1050       C  0.44489658  0.78053431  0.77995012    -0.15000
H1051       H  0.42658928  0.79685565  0.84162310     0.20400
H1052       H  0.47846273  0.88124445  0.75009210     0.16500
H1053       H  0.47392842  0.92004527  0.79906194     0.19000
H1054       H  0.43481783  0.75947263  0.79624878     0.12300
C1055       C  0.50246912  0.66777926  0.52597772     0.16200
C1056       C  0.50720075  0.65316093  0.49668568    -0.32900
C1057       C  0.49989759  0.62149374  0.50027455     0.20600
C1058       C  0.48875519  0.60520982  0.53175583     0.02800
C1059       C  0.48493039  0.62012745  0.56136999    -0.22600
C1060       C  0.49177435  0.65164669  0.55760295     0.11900
S1061       S  0.50681842  0.70489590  0.52584892    -0.06200
C1062       C  0.49402546  0.69863646  0.56887278    -0.09700
C1063       C  0.48719538  0.66935733  0.58245883    -0.26300
S1064       S  0.47735371  0.56588842  0.02944960    -0.03500
C1065       C  0.48765464  0.57145430  0.98558683    -0.17000
C1066       C  0.49986715  0.60234148  0.97383214    -0.15000
H1067       H  0.51489045  0.66546548  0.47176968     0.20400
H1068       H  0.47563617  0.60730451  0.58573152     0.16500
H1069       H  0.47821502  0.66100161  0.60864629     0.19000
H1070       H  0.50594451  0.60982708  0.94673364     0.12300
C1071       C  0.47963547  0.84002749  0.55607600     0.16200
C1072       C  0.47306220  0.86479206  0.55184896    -0.32900
C1073       C  0.48362956  0.88297717  0.52112290     0.20600
C1074       C  0.50036041  0.87701759  0.99586087     0.02800
C1075       C  0.50679534  0.85203767  0.49996113    -0.22600
C1076       C  0.49582849  0.83353186  0.53059163     0.11900
S1077       S  0.46858682  0.81543339  0.59152167    -0.06200
C1078       C  0.48550166  0.79566919  0.57180034    -0.09700
C1079       C  0.49908357  0.80779526  0.53934348    -0.26300
S1080       S  0.51011057  0.90117666  0.95991005    -0.03500
C1081       C  0.49083721  0.91899021  0.97885088    -0.17000
C1082       C  0.47803643  0.90696688  0.51151926    -0.15000
H1083       H  0.45992920  0.86943472  0.57149295     0.20400
H1084       H  0.51933218  0.84695400  0.97998557     0.16500
H1085       H  0.51084418  0.79850124  0.52326994     0.19000
H1086       H  0.46413569  0.91434853  0.52667314     0.12300
loop_ 
_geom_bond_atom_site_label_1 
_geom_bond_atom_site_label_2 
_geom_bond_distance 
_geom_bond_site_symmetry_2 
_ccdc_geom_bond_type 
C1            N2   1.364       .  A
C1            N6   1.364       .  A
C1          C519   1.473       .  S
N2            C3   1.358       .  A
C3            N4   1.353       .  A
C3           C11   1.466       .  S
N4            C5   1.351       .  A
C5            N6   1.359       .  A
C5          C535   1.471       .  S
C7            N8   1.361       .  A
C7           N12   1.363       .  A
C7          C487   1.475       .  S
N8            C9   1.357       .  A
C9           N10   1.351       .  A
C9          C506   1.472       .  S
N10          C11   1.356       .  A
C11          N12   1.361       .  A
C13          N14   1.362       .  A
C13          N18   1.359       .  A
C13         C471   1.474       .  S
N14          C15   1.362       .  A
C15          N16   1.356       .  A
C15          C23   1.470       .  S
N16          C17   1.355       .  A
C17          N18   1.357       .  A
C17         C458   1.469       .  S
C19          N20   1.358       .  A
C19          N24   1.360       .  A
C19         C439   1.470       .  S
N20          C21   1.356       .  A
C21          N22   1.357       .  A
C21         C423   1.478       .  S
N22          C23   1.362       .  A
C23          N24   1.361       .  A
C25          N26   1.355       .  A
C25          N30   1.356       .  A
C25         C410   1.475       .  S
N26          C27   1.357       .  A
C27          N28   1.361       .  A
C27         C394   1.474       .  S
N28          C29   1.363       .  A
C29          N30   1.361       .  A
C29          C33   1.471       .  S
C31          N32   1.356       .  A
C31          N36   1.359       .  A
C31         C378   1.474       .  S
N32          C33   1.356       .  A
C33          N34   1.359       .  A
N34          C35   1.362       .  A
C35          N36   1.361       .  A
C35         C359   1.473       .  S
C37          N38   1.364       .  A
C37          N42   1.355       .  A
C37         C343   1.480       .  S
N38          C39   1.368       .  A
C39          N40   1.362       .  A
C39          C45   1.478       .  S
N40          C41   1.357       .  A
C41          N42   1.352       .  A
C41         C330   1.474       .  S
C43          N44   1.362       .  A
C43          N48   1.362       .  A
C43         C311   1.479       .  S
N44          C45   1.358       .  A
C45          N46   1.360       .  A
N46          C47   1.359       .  A
C47          N48   1.361       .  A
C47         C295   1.482       .  S
C49          N50   1.361       .  A
C49          N54   1.354       .  A
C49         C266   1.477       .  S
N50          C51   1.365       .  A
C51          N52   1.365       .  A
C51         C279   1.479       .  S
N52          C53   1.359       .  A
C53          N54   1.355       .  A
C53          C57   1.475       .  S
C55          N56   1.354       .  A
C55          N60   1.356       .  A
C55         C234   1.477       .  S
N56          C57   1.359       .  A
C57          N58   1.365       .  A
N58          C59   1.366       .  A
C59          N60   1.360       .  A
C59         C247   1.481       .  S
C61          N62   1.355       .  A
C61          N66   1.352       .  A
C61         C215   1.469       .  S
N62          C63   1.362       .  A
C63          N64   1.363       .  A
C63          C71   1.469       .  S
N64          C65   1.361       .  A
C65          N66   1.355       .  A
C65         C199   1.471       .  S
C67          N68   1.363       .  A
C67          N72   1.354       .  A
C67         C183   1.476       .  S
N68          C69   1.366       .  A
C69          N70   1.362       .  A
C69         C170   1.478       .  S
N70          C71   1.357       .  A
C71          N72   1.353       .  A
O73          C81   1.261       .  A
O73         Co93   1.991       .  S
O74          C82   1.280       .  A
O74         Co94   2.018       .  S
O75          C83   1.269       .  A
O75         Co95   1.981       .  S
O76          C84   1.266       .  A
O76         Co96   1.900       .  S
O77          C83   1.274       .  A
O77         Co94   2.016       .  S
O78          C84   1.294       .  A
O78         Co93   2.103       .  S
O79          C82   1.270       .  A
O79         Co96   1.973       .  S
O80          C81   1.262       .  A
O80         Co95   1.993       .  S
C81         C490   1.472       .  S
C82         C202   1.470       .  S
C83         C231   1.476       .  S
C84         C362   1.470       .  S
O85          C98   1.261       .  A
O85         Co93   1.886       .  S
O86          C99   1.263       .  A
O86         Co94   1.969       .  S
O87         C100   1.281       .  A
O87         Co95   2.035       .  S
O88         C101   1.263       .  A
O88         Co96   2.009       .  S
O89         C101   1.258       .  A
O89         Co94   1.978       .  S
O90         C100   1.266       .  A
O90         Co93   1.962       .  S
O91          C98   1.296       .  A
O91         Co96   2.117       .  S
O92          C99   1.272       .  A
O92         Co95   2.022       .  S
Co93         O97   1.980       .  S
Co94         O97   2.007       .  S
Co95         O97   2.040       .  S
Co96         O97   2.019       .  S
C98         C391   1.471       .  S
C99         C263   1.473       .  S
C100        C522   1.468       .  S
C101        C167   1.473       .  S
O102        C110   1.253       .  A
O102       Co122   1.994   1_455  S
O103        C111   1.262       .  A
O103       Co123   1.980       .  S
O104        C112   1.271       .  A
O104       Co124   2.017       .  S
O105        C113   1.250   1_655  A
O105       Co125   1.978       .  S
O106        C112   1.264       .  A
O106       Co123   1.977       .  S
O107        C113   1.255       .  A
O107       Co122   1.994   1_455  S
O108        C111   1.268       .  A
O108       Co125   2.015       .  S
O109        C110   1.250   1_655  A
O109       Co124   1.986       .  S
C110        C426   1.474       .  S
C111        C314   1.472       .  S
C112        C282   1.471       .  S
C113        C407   1.473       .  S
O114        C127   1.299       .  A
O114       Co122   2.079       .  S
O115        C128   1.267       .  A
O115       Co123   2.015       .  S
O116        C129   1.274       .  A
O116       Co124   1.894       .  S
O117        C130   1.260       .  A
O117       Co125   1.994       .  S
O118        C130   1.269       .  A
O118       Co123   2.012       .  S
O119        C129   1.298       .  A
O119       Co122   2.066       .  S
O120        C127   1.269       .  A
O120       Co125   1.891       .  S
O121        C128   1.260       .  A
O121       Co124   1.998       .  S
Co122       O126   2.254       .  S
Co123       O126   2.071       .  S
Co124       O126   1.920       .  S
Co125       O126   1.922       .  S
C127        C375   1.469       .  S
C128        C250   1.479       .  S
C129        C455   1.465   1_655  S
C130        C346   1.476       .  S
O131        C139   1.272       .  A
O131       Co151   1.974       .  S
O132        C140   1.260       .  A
O132       Co152   1.980       .  S
O133        C141   1.277       .  A
O133       Co153   2.043   1_545  S
O134        C142   1.298       .  A
O134       Co154   2.126       .  S
O135        C141   1.260       .  A
O135       Co152   1.959       .  S
O136        C142   1.260       .  A
O136       Co151   1.872       .  S
O137        C140   1.263       .  A
O137       Co154   2.003   1_545  S
O138        C139   1.277       .  A
O138       Co153   2.017       .  S
C139        C538   1.469       .  S
C140        C186   1.474       .  S
C141        C298   1.479       .  S
C142        C442   1.469       .  S
O143        C156   1.294       .  A
O143       Co151   2.108       .  S
O144        C157   1.276       .  A
O144       Co152   2.026       .  S
O145        C158   1.264       .  A
O145       Co153   2.004       .  S
O146        C159   1.273       .  A
O146       Co154   1.986   1_545  S
O147        C159   1.276       .  A
O147       Co152   2.005       .  S
O148        C158   1.257       .  A
O148       Co151   1.975       .  S
O149        C156   1.268       .  A
O149       Co154   1.903       .  S
O150        C157   1.263       .  A
O150       Co153   1.964   1_545  S
Co151       O155   1.970       .  S
Co152       O155   2.014   1_545  S
Co153       O155   2.047       .  S
Co154       O155   2.020       .  S
C156        C474   1.470       .  S
C157        C327   1.471       .  S
C158        C503   1.471       .  S
C159        C218   1.470       .  S
C160        S166   1.707       .  A
C160        C165   1.387       .  A
C160        C161   1.401       .  A
C161        C162   1.402       .  A
C161        H172   1.082       .  S
C162        C171   1.370       .  A
C162        C163   1.386       .  A
C163        S169   1.713       .  A
C163        C164   1.405       .  A
C164        C165   1.406       .  A
C164        H716   1.082   1_554  S
C165        C711   1.374   1_554  A
S166        C710   1.722       .  A
C167        S709   1.722       .  A
C167        C168   1.389       .  A
C168        C708   1.374       .  A
C168        H174   1.082       .  S
S169        C170   1.725       .  A
C170        C171   1.388       .  A
C171        H175   1.082       .  S
H173        C707   1.082       .  S
C176        S182   1.703       .  A
C176        C181   1.387       .  A
C176        C177   1.403       .  A
C177        C178   1.402       .  A
C177        H188   1.082       .  S
C178        C187   1.375       .  A
C178        C179   1.387       .  A
C179        S728   1.706   1_554  A
C179        C180   1.404       .  A
C180        C181   1.403       .  A
C180        H189   1.083   1_554  S
C181        C184   1.376       .  A
S182        C183   1.726       .  A
C183        C184   1.387       .  A
C184        H190   1.083       .  S
S185        C186   1.725       .  A
S185        C722   1.706       .  A
C186        C730   1.388       .  A
C187        C729   1.388   1_554  A
C187        H191   1.083       .  S
C192        S198   1.696       .  A
C192        C197   1.387       .  A
C192        C193   1.394       .  A
C193        C194   1.395       .  A
C193        H204   1.082       .  S
C194        C203   1.362       .  A
C194        C195   1.386       .  A
C195        S201   1.714       .  A
C195        C196   1.407       .  A
C196        C197   1.407       .  A
C196        H205   1.082       .  S
C197        C200   1.376       .  A
S198        C199   1.721       .  A
C199        C200   1.389       .  A
C200        H206   1.082       .  S
S201        C202   1.726       .  A
C202        C203   1.383       .  A
C203        H207   1.083       .  S
C208        S214   1.700       .  A
C208        C213   1.388       .  A
C208        C209   1.395       .  A
C209        C210   1.397       .  A
C209        H220   1.083       .  S
C210        C219   1.361       .  A
C210        C211   1.386       .  A
C211        S217   1.715       .  A
C211        C212   1.405       .  A
C212        C213   1.407       .  A
C212        H221   1.082       .  S
C213        C216   1.374       .  A
S214        C215   1.720       .  A
C215        C216   1.388       .  A
C216        H222   1.083       .  S
S217        C218   1.724       .  A
C218        C219   1.385       .  A
C219        H223   1.083       .  S
C224        S230   1.704       .  A
C224        C229   1.387       .  A
C224        C225   1.401       .  A
C225        C226   1.401       .  A
C225        H236   1.083       .  S
C226        C235   1.371       .  A
C226        C227   1.387       .  A
C227        S233   1.710       .  A
C227        C228   1.405       .  A
C228        C229   1.405       .  A
C228        H237   1.083       .  S
C229        C232   1.375       .  A
S230        C231   1.724       .  A
C231        C232   1.389       .  A
C232        H238   1.083       .  S
S233        C234   1.726       .  A
C234        C235   1.387       .  A
C235        H239   1.083       .  S
C240        S246   1.703       .  A
C240        C245   1.387       .  A
C240        C241   1.401       .  A
C241        C242   1.401       .  A
C241        H252   1.082       .  S
C242        C251   1.371       .  A
C242        C243   1.386       .  A
C243        S249   1.714       .  A
C243        C244   1.409       .  A
C244        C245   1.408       .  A
C244        H253   1.082       .  S
C245        C248   1.380       .  A
S246        C247   1.725       .  A
C247        C248   1.391       .  A
C248        H254   1.082       .  S
S249        C250   1.727       .  A
C250        C251   1.387       .  A
C251        H255   1.082       .  S
C256        S805   1.708   1_554  A
C256        C261   1.387       .  A
C256        C257   1.405       .  A
C257        C258   1.405       .  A
C257        H268   1.082   1_554  S
C258        C267   1.377       .  A
C258        C259   1.387       .  A
C259        S265   1.702       .  A
C259        C260   1.400       .  A
C260        C261   1.400       .  A
C260        H269   1.083       .  S
C261        C264   1.371       .  A
S262        C263   1.725       .  A
S262        C799   1.708       .  A
C263        C807   1.386       .  A
C264        C806   1.386   1_554  A
C264        H270   1.083       .  S
S265        C266   1.725       .  A
C266        C267   1.389       .  A
C267        H271   1.083       .  S
C272        S278   1.712       .  A
C272        C277   1.386       .  A
C272        C816   1.406       .  A
C273        C274   1.406       .  A
C273        C815   1.406       .  A
C273        H284   1.081       .  S
C274        C283   1.375       .  A
C274        C818   1.387       .  A
C275        S281   1.704       .  A
C275        C276   1.400       .  A
C275        C817   1.387       .  A
C276        C277   1.401       .  A
C276        H285   1.081       .  S
C277        C280   1.370       .  A
S278        C279   1.727       .  A
C279        C280   1.387       .  A
C280        H286   1.082       .  S
S281        C825   1.722   1_554  A
C282        S824   1.722       .  A
C282        C283   1.389       .  A
C283        H287   1.082       .  S
C288        S294   1.708       .  A
C288        C293   1.386       .  A
C288        C289   1.402       .  A
C289        C290   1.403       .  A
C289        H300   1.083       .  S
C290        C291   1.386       .  A
C290        C842   1.370       .  A
C291        S840   1.715   1_554  A
C291        C292   1.407       .  A
C292        C293   1.408       .  A
C292        H301   1.083   1_554  S
C293        C296   1.377       .  A
S294        C295   1.725       .  A
C295        C296   1.391       .  A
C296        H302   1.083       .  S
S297        C298   1.726       .  A
S297        C834   1.715       .  A
C298        C299   1.389       .  A
C299        C833   1.370       .  A
C299        H303   1.083       .  S
C304        S310   1.711       .  A
C304        C309   1.386       .  A
C304        C848   1.405       .  A
C305        C306   1.406       .  A
C305        C847   1.405       .  A
C305        H316   1.081       .  S
C306        C315   1.375       .  A
C306        C850   1.387       .  A
C307        S313   1.706       .  A
C307        C308   1.401       .  A
C307        C849   1.387       .  A
C308        C309   1.402       .  A
C308        H317   1.081       .  S
C309        C312   1.371       .  A
S310        C311   1.727       .  A
C311        C312   1.388       .  A
C312        H318   1.082       .  S
S313        C857   1.722   1_554  A
C314        S856   1.722       .  A
C314        C315   1.389       .  A
C315        H319   1.082       .  S
C320        S326   1.706       .  A
C320        C325   1.387       .  A
C320        C321   1.403       .  A
C321        C322   1.403       .  A
C321        H332   1.081       .  S
C322        C331   1.374       .  A
C322        C323   1.387       .  A
C323        S329   1.702       .  A
C323        C324   1.400       .  A
C324        C325   1.400       .  A
C324        H333   1.081       .  S
C325        C328   1.370       .  A
S326        C327   1.724       .  A
C327        C328   1.385       .  A
C328        H334   1.082       .  S
S329        C330   1.724       .  A
C330        C331   1.388       .  A
C331        H335   1.082       .  S
C336        S342   1.698       .  A
C336        C341   1.387       .  A
C336        C337   1.398       .  A
C337        C338   1.398       .  A
C337        H348   1.082       .  S
C338        C347   1.368       .  A
C338        C339   1.386       .  A
C339        S345   1.715       .  A
C339        C340   1.410       .  A
C340        C341   1.409       .  A
C340        H349   1.082       .  S
C341        C344   1.382       .  A
S342        C343   1.724       .  A
C343        C344   1.392       .  A
C344        H350   1.082       .  S
S345        C346   1.727       .  A
C346        C347   1.384       .  A
C347        H351   1.083       .  S
C352        S358   1.710       .  A
C352        C357   1.387       .  A
C352        C353   1.403       .  A
C353        C354   1.404       .  A
C353        H364   1.083       .  S
C354        C363   1.371       .  A
C354        C355   1.387       .  A
C355        S361   1.709       .  A
C355        C356   1.401       .  A
C356        C357   1.402       .  A
C356        H365   1.084       .  S
C357        C360   1.369       .  A
S358        C359   1.724       .  A
C359        C360   1.386       .  A
C360        H366   1.084       .  S
S361        C362   1.722       .  A
C362        C363   1.387       .  A
C363        H367   1.083       .  S
C368        S374   1.711       .  A
C368        C373   1.387       .  A
C368        C369   1.401       .  A
C369        C370   1.404       .  A
C369        H380   1.082       .  S
C370        C379   1.368       .  A
C370        C371   1.386       .  A
C371        S377   1.710       .  A
C371        C372   1.401       .  A
C372        C373   1.403       .  A
C372        H381   1.082       .  S
C373        C376   1.368       .  A
S374        C375   1.722   1_455  A
C375        C376   1.387   1_655  A
C376        H382   1.082       .  S
S377        C378   1.723       .  A
C378        C379   1.388       .  A
C379        H383   1.082       .  S
C384        S390   1.716       .  A
C384        C389   1.386       .  A
C384        C385   1.407       .  A
C385        C386   1.408       .  A
C385        H396   1.082       .  S
C386        C395   1.377       .  A
C386        C387   1.387       .  A
C387        S393   1.701       .  A
C387        C388   1.397       .  A
C388        C389   1.398       .  A
C388        H940   1.083   1_554  S
C389        C935   1.365   1_554  A
S390        C934   1.725   1_554  A
C391        S933   1.725       .  A
C391        C392   1.384       .  A
C392        C932   1.365       .  A
C392        H398   1.083       .  S
S393        C394   1.722       .  A
C394        C395   1.390       .  A
C395        H399   1.083       .  S
H397        C931   1.083       .  S
C400        S949   1.701   1_554  A
C400        C405   1.387       .  A
C400        C401   1.398       .  A
C401        C402   1.399       .  A
C401        H412   1.083   1_554  S
C402        C411   1.367       .  A
C402        C403   1.386       .  A
C403        S409   1.712       .  A
C403        C404   1.406       .  A
C404        C405   1.407       .  A
C404        H413   1.083       .  S
C405        C951   1.377       .  A
S406        C407   1.722       .  A
S406        C943   1.701       .  A
C407        C408   1.389       .  A
C408        C948   1.377       .  A
C408        H414   1.083       .  S
S409        C410   1.726       .  A
C410        C411   1.385       .  A
C411        H415   1.084       .  S
C416        S422   1.712       .  A
C416        C421   1.386       .  A
C416        C417   1.407       .  A
C417        C418   1.407       .  A
C417        H428   1.083       .  S
C418        C427   1.378       .  A
C418        C962   1.387   1_554  A
C419        S425   1.703       .  A
C419        C420   1.400       .  A
C419        C961   1.387       .  A
C420        C964   1.400       .  A
C420        H429   1.083       .  S
C421        C424   1.370       .  A
C421        C963   1.400       .  A
S422        C423   1.727       .  A
C423        C424   1.387       .  A
C424        H430   1.083       .  S
S425        C426   1.723       .  A
C426        C970   1.389       .  A
C427        C969   1.389   1_554  A
C427        H431   1.083       .  S
C432        S438   1.699       .  A
C432        C437   1.387       .  A
C432        C976   1.393       .  A
C433        C434   1.395       .  A
C433        C975   1.393       .  A
C433        H444   1.082       .  S
C434        C443   1.360       .  A
C434        C978   1.386       .  A
C435        S441   1.720       .  A
C435        C436   1.408       .  A
C435        C977   1.386       .  A
C436        C437   1.410       .  A
C436        H445   1.082       .  S
C437        C440   1.376       .  A
S438        C439   1.719       .  A
C439        C440   1.390       .  A
C440        H446   1.082       .  S
S441        C985   1.725   1_554  A
C442        S984   1.725       .  A
C442        C443   1.382       .  A
C443        H447   1.083       .  S
C448        S454   1.711       .  A
C448        C453   1.387       .  A
C448        C449   1.402       .  A
C449        C450   1.404       .  A
C449        H460   1.082       .  S
C450        C459   1.369       .  A
C450        C451   1.387       .  A
C451        S457   1.705       .  A
C451        C452   1.398       .  A
C452        C453   1.400       .  A
C452        H461   1.082       .  S
C453        C456   1.365       .  A
S454        C455   1.723       .  A
C455        C456   1.384       .  A
C456        H462   1.083       .  S
S457        C458   1.720       .  A
C458        C459   1.388       .  A
C459        H463   1.082       .  S
C464        S470   1.708       .  A
C464        C469   1.387       .  A
C464        C465   1.404       .  A
C465        C466   1.404       .  A
C465        H476   1.082       .  S
C466        C475   1.374       .  A
C466        C467   1.387       .  A
C467        S473   1.708       .  A
C467        C468   1.402       .  A
C468        C469   1.403       .  A
C468        H477   1.082       .  S
C469        C472   1.373       .  A
S470        C471   1.725       .  A
C471        C472   1.387       .  A
C472        H478   1.083       .  S
S473        C474   1.722       .  A
C474        C475   1.387       .  A
C475        H479   1.082       .  S
C480        S486   1.703       .  A
C480        C485   1.387       .  A
C480        C481   1.399       .  A
C481        C482   1.400       .  A
C481        H492   1.082       .  S
C482        C491   1.367       .  A
C482        C483   1.386       .  A
C483        S489   1.713       .  A
C483        C484   1.405       .  A
C484        C485   1.406       .  A
C484        H493   1.082       .  S
C485        C488   1.374       .  A
S486        C487   1.723       .  A
C487        C488   1.389       .  A
C488        H494   1.082       .  S
S489        C490   1.724       .  A
C490        C491   1.386       .  A
C491        H495   1.082       .  S
C496        S502   1.695       .  A
C496        C501   1.388       .  A
C496        C497   1.397       .  A
C497        C498   1.396       .  A
C497        H508   1.083       .  S
C498        C507   1.368       .  A
C498        C499   1.387       .  A
C499        S505   1.708       .  A
C499        C500   1.406       .  A
C500        C501   1.405       .  A
C500        H509   1.082       .  S
C501        C504   1.378       .  A
S502        C503   1.723       .  A
C503        C504   1.388       .  A
C504        H510   1.082       .  S
S505        C506   1.727       .  A
C506        C507   1.383       .  A
C507        H511   1.083       .  S
C512        S518   1.706       .  A
C512        C517   1.387       .  A
C512        C513   1.401   1_554  A
C513        C514   1.402   1_556  A
C513        H524   1.082       .  S
C514        C515   1.387       .  A
C514       C1066   1.370   1_554  A
C515       S1064   1.706       .  A
C515        C516   1.401       .  A
C516        C517   1.402       .  A
C516        H525   1.082       .  S
C517        C520   1.370       .  A
S518        C519   1.723       .  A
C519        C520   1.387       .  A
C520        H526   1.082       .  S
S521        C522   1.723       .  A
S521       C1058   1.706       .  A
C522        C523   1.385       .  A
C523       C1057   1.370       .  A
C523        H527   1.082       .  S
C528        S534   1.699       .  A
C528        C533   1.387       .  A
C528        C529   1.399       .  A
C529        C530   1.398       .  A
C529        H540   1.083       .  S
C530        C539   1.370       .  A
C530       C1074   1.387   1_554  A
C531        S537   1.705       .  A
C531       C1073   1.387       .  A
C531       C1075   1.404       .  A
C532        C533   1.403   1_556  A
C532       C1074   1.404       .  A
C532       H1084   1.082       .  S
C533        C536   1.375       .  A
S534        C535   1.723       .  A
C535        C536   1.387       .  A
C536        H542   1.083       .  S
S537        C538   1.727       .  A
C538       C1082   1.384       .  A
C539       C1081   1.384   1_554  A
C539        H543   1.083       .  S
H541       C1075   1.082       .  S
C544        N545   1.364       .  A
C544        N549   1.364       .  A
C544       C1062   1.473       .  S
N545        C546   1.358       .  A
C546        N547   1.353       .  A
C546        C554   1.466       .  S
N547        C548   1.351       .  A
C548        N549   1.359       .  A
C548       C1078   1.471       .  S
C550        N551   1.361       .  A
C550        N555   1.363       .  A
C550       C1030   1.475       .  S
N551        C552   1.357       .  A
C552        N553   1.351       .  A
C552       C1049   1.472       .  S
N553        C554   1.356       .  A
C554        N555   1.361       .  A
C556        N557   1.362       .  A
C556        N561   1.359       .  A
C556       C1014   1.474       .  S
N557        C558   1.362       .  A
C558        N559   1.356       .  A
C558        C566   1.470       .  S
N559        C560   1.355       .  A
C560        N561   1.357       .  A
C560       C1001   1.469       .  S
C562        N563   1.358       .  A
C562        N567   1.360       .  A
C562        C982   1.470       .  S
N563        C564   1.356       .  A
C564        N565   1.357       .  A
C564        C966   1.478       .  S
N565        C566   1.362       .  A
C566        N567   1.361       .  A
C568        N569   1.355       .  A
C568        N573   1.356       .  A
C568        C953   1.475       .  S
N569        C570   1.357       .  A
C570        N571   1.361       .  A
C570        C937   1.474       .  S
N571        C572   1.363       .  A
C572        N573   1.361       .  A
C572        C576   1.471       .  S
C574        N575   1.356       .  A
C574        N579   1.359       .  A
C574        C921   1.474       .  S
N575        C576   1.356       .  A
C576        N577   1.359       .  A
N577        C578   1.362       .  A
C578        N579   1.361       .  A
C578        C902   1.473       .  S
C580        N581   1.364       .  A
C580        N585   1.355       .  A
C580        C886   1.480       .  S
N581        C582   1.368       .  A
C582        N583   1.362       .  A
C582        C588   1.478       .  S
N583        C584   1.357       .  A
C584        N585   1.352       .  A
C584        C873   1.474       .  S
C586        N587   1.362       .  A
C586        N591   1.362       .  A
C586        C854   1.479       .  S
N587        C588   1.359       .  A
C588        N589   1.360       .  A
N589        C590   1.359       .  A
C590        N591   1.361       .  A
C590        C838   1.482       .  S
C592        N593   1.361       .  A
C592        N597   1.354       .  A
C592        C809   1.477       .  S
N593        C594   1.365       .  A
C594        N595   1.365       .  A
C594        C822   1.479       .  S
N595        C596   1.359       .  A
C596        N597   1.355       .  A
C596        C600   1.475       .  S
C598        N599   1.354       .  A
C598        N603   1.356       .  A
C598        C777   1.477       .  S
N599        C600   1.359       .  A
C600        N601   1.365       .  A
N601        C602   1.366       .  A
C602        N603   1.360       .  A
C602        C790   1.481       .  S
C604        N605   1.355       .  A
C604        N609   1.352       .  A
C604        C758   1.469       .  S
N605        C606   1.362       .  A
C606        N607   1.363       .  A
C606        C614   1.469       .  S
N607        C608   1.361       .  A
C608        N609   1.355       .  A
C608        C742   1.471       .  S
C610        N611   1.363       .  A
C610        N615   1.354       .  A
C610        C726   1.476       .  S
N611        C612   1.366       .  A
C612        N613   1.362       .  A
C612        C713   1.478       .  S
N613        C614   1.357       .  A
C614        N615   1.353       .  A
O616        C624   1.261       .  A
O616       Co636   1.991       .  S
O617        C625   1.280       .  A
O617       Co637   2.018       .  S
O618        C626   1.269       .  A
O618       Co638   1.981       .  S
O619        C627   1.266       .  A
O619       Co639   1.900       .  S
O620        C626   1.274       .  A
O620       Co637   2.016       .  S
O621        C627   1.294       .  A
O621       Co636   2.103       .  S
O622        C625   1.270       .  A
O622       Co639   1.973       .  S
O623        C624   1.262       .  A
O623       Co638   1.993       .  S
C624       C1033   1.472       .  S
C625        C745   1.470       .  S
C626        C774   1.476       .  S
C627        C905   1.470       .  S
O628        C641   1.261       .  A
O628       Co636   1.886       .  S
O629        C642   1.263       .  A
O629       Co637   1.969       .  S
O630        C643   1.281       .  A
O630       Co638   2.035       .  S
O631        C644   1.263       .  A
O631       Co639   2.009       .  S
O632        C644   1.258       .  A
O632       Co637   1.978       .  S
O633        C643   1.266       .  A
O633       Co636   1.962       .  S
O634        C641   1.296       .  A
O634       Co639   2.117       .  S
O635        C642   1.272       .  A
O635       Co638   2.022       .  S
Co636       O640   1.980       .  S
Co637       O640   2.007       .  S
Co638       O640   2.039       .  S
Co639       O640   2.018       .  S
C641        C934   1.471       .  S
C642        C806   1.473       .  S
C643       C1065   1.467       .  S
C644        C710   1.473   1_556  S
O645        C653   1.253       .  A
O645       Co665   1.994   1_455  S
O646        C654   1.262       .  A
O646       Co666   1.980       .  S
O647        C655   1.271       .  A
O647       Co667   2.017       .  S
O648        C656   1.250   1_655  A
O648       Co668   1.978       .  S
O649        C655   1.264       .  A
O649       Co666   1.977       .  S
O650        C656   1.255       .  A
O650       Co665   1.994   1_455  S
O651        C654   1.268       .  A
O651       Co668   2.015       .  S
O652        C653   1.250   1_655  A
O652       Co667   1.986       .  S
C653        C969   1.474       .  S
C654        C857   1.472       .  S
C655        C825   1.471       .  S
C656        C950   1.473       .  S
O657        C670   1.299       .  A
O657       Co665   2.079       .  S
O658        C671   1.267       .  A
O658       Co666   2.015       .  S
O659        C672   1.274       .  A
O659       Co667   1.894       .  S
O660        C673   1.260       .  A
O660       Co668   1.994       .  S
O661        C673   1.269       .  A
O661       Co666   2.012       .  S
O662        C672   1.298       .  A
O662       Co665   2.066       .  S
O663        C670   1.269       .  A
O663       Co668   1.891       .  S
O664        C671   1.260       .  A
O664       Co667   1.998       .  S
Co665       O669   2.254       .  S
Co666       O669   2.071       .  S
Co667       O669   1.920       .  S
Co668       O669   1.922       .  S
C670        C918   1.469       .  S
C671        C793   1.479       .  S
C672        C998   1.465   1_655  S
C673        C889   1.476       .  S
O674        C682   1.272       .  A
O674       Co694   1.974       .  S
O675        C683   1.260       .  A
O675       Co695   1.980       .  S
O676        C684   1.277       .  A
O676       Co696   2.043   1_545  S
O677        C685   1.298       .  A
O677       Co697   2.126       .  S
O678        C684   1.260       .  A
O678       Co695   1.959       .  S
O679        C685   1.260       .  A
O679       Co694   1.872       .  S
O680        C683   1.263       .  A
O680       Co697   2.003   1_545  S
O681        C682   1.277       .  A
O681       Co696   2.017       .  S
C682       C1081   1.469       .  S
C683        C729   1.474       .  S
C684        C841   1.479       .  S
C685        C985   1.469       .  S
O686        C699   1.294       .  A
O686       Co694   2.108       .  S
O687        C700   1.276       .  A
O687       Co695   2.026       .  S
O688        C701   1.264       .  A
O688       Co696   2.004       .  S
O689        C702   1.273       .  A
O689       Co697   1.986   1_545  S
O690        C702   1.276       .  A
O690       Co695   2.005       .  S
O691        C701   1.257       .  A
O691       Co694   1.975       .  S
O692        C699   1.268       .  A
O692       Co697   1.903       .  S
O693        C700   1.263       .  A
O693       Co696   1.964   1_545  S
Co694       O698   1.970       .  S
Co695       O698   2.014   1_545  S
Co696       O698   2.047       .  S
Co697       O698   2.020       .  S
C699       C1017   1.470       .  S
C700        C870   1.471       .  S
C701       C1046   1.471       .  S
C702        C761   1.470       .  S
C703        S709   1.707       .  A
C703        C708   1.387       .  A
C703        C704   1.401       .  A
C704        C705   1.402       .  A
C704        H715   1.082       .  S
C705        C714   1.370       .  A
C705        C706   1.386       .  A
C706        S712   1.713       .  A
C706        C707   1.405       .  A
C707        C708   1.406       .  A
C710        C711   1.389   1_554  A
C711        H717   1.082       .  S
S712        C713   1.725       .  A
C713        C714   1.388       .  A
C714        H718   1.082       .  S
C719        S725   1.703       .  A
C719        C724   1.387       .  A
C719        C720   1.403       .  A
C720        C721   1.402       .  A
C720        H731   1.082       .  S
C721        C730   1.375       .  A
C721        C722   1.387       .  A
C722        C723   1.404       .  A
C723        C724   1.403       .  A
C723        H732   1.083       .  S
C724        C727   1.376       .  A
S725        C726   1.726       .  A
C726        C727   1.387       .  A
C727        H733   1.083       .  S
S728        C729   1.725       .  A
C730        H734   1.083       .  S
C735        S741   1.696       .  A
C735        C740   1.387       .  A
C735        C736   1.394       .  A
C736        C737   1.395       .  A
C736        H747   1.082       .  S
C737        C746   1.362       .  A
C737        C738   1.386       .  A
C738        S744   1.714       .  A
C738        C739   1.407       .  A
C739        C740   1.407       .  A
C739        H748   1.082       .  S
C740        C743   1.376       .  A
S741        C742   1.721       .  A
C742        C743   1.389       .  A
C743        H749   1.082       .  S
S744        C745   1.726       .  A
C745        C746   1.383       .  A
C746        H750   1.083       .  S
C751        S757   1.700       .  A
C751        C756   1.388       .  A
C751        C752   1.395       .  A
C752        C753   1.397       .  A
C752        H763   1.083       .  S
C753        C762   1.361       .  A
C753        C754   1.386       .  A
C754        S760   1.715       .  A
C754        C755   1.405       .  A
C755        C756   1.407       .  A
C755        H764   1.082       .  S
C756        C759   1.374       .  A
S757        C758   1.720       .  A
C758        C759   1.388       .  A
C759        H765   1.083       .  S
S760        C761   1.724       .  A
C761        C762   1.385       .  A
C762        H766   1.083       .  S
C767        S773   1.704       .  A
C767        C772   1.387       .  A
C767        C768   1.401       .  A
C768        C769   1.401       .  A
C768        H779   1.083       .  S
C769        C778   1.371       .  A
C769        C770   1.387       .  A
C770        S776   1.710       .  A
C770        C771   1.405       .  A
C771        C772   1.405       .  A
C771        H780   1.083       .  S
C772        C775   1.375       .  A
S773        C774   1.724       .  A
C774        C775   1.389       .  A
C775        H781   1.083       .  S
S776        C777   1.726       .  A
C777        C778   1.387       .  A
C778        H782   1.083       .  S
C783        S789   1.703       .  A
C783        C788   1.387       .  A
C783        C784   1.401       .  A
C784        C785   1.401       .  A
C784        H795   1.082       .  S
C785        C794   1.371       .  A
C785        C786   1.386       .  A
C786        S792   1.714       .  A
C786        C787   1.409       .  A
C787        C788   1.408       .  A
C787        H796   1.082       .  S
C788        C791   1.380       .  A
S789        C790   1.725       .  A
C790        C791   1.391       .  A
C791        H797   1.082       .  S
S792        C793   1.727       .  A
C793        C794   1.387       .  A
C794        H798   1.082       .  S
C799        C804   1.387       .  A
C799        C800   1.405       .  A
C800        C801   1.405       .  A
C800        H811   1.082       .  S
C801        C810   1.377       .  A
C801        C802   1.387       .  A
C802        S808   1.702       .  A
C802        C803   1.400       .  A
C803        C804   1.400       .  A
C803        H812   1.083       .  S
C804        C807   1.371       .  A
S805        C806   1.725       .  A
C807        H813   1.083       .  S
S808        C809   1.725       .  A
C809        C810   1.389       .  A
C810        H814   1.083       .  S
C815        S821   1.712       .  A
C815        C820   1.386       .  A
C816        C817   1.406       .  A
C816        H827   1.081   1_554  S
C817        C826   1.375   1_554  A
C818        S824   1.704       .  A
C818        C819   1.400       .  A
C819        C820   1.401       .  A
C819        H828   1.081       .  S
C820        C823   1.370       .  A
S821        C822   1.727       .  A
C822        C823   1.387       .  A
C823        H829   1.082       .  S
C825        C826   1.389       .  A
C826        H830   1.082       .  S
C831        S837   1.708       .  A
C831        C836   1.386       .  A
C831        C832   1.402       .  A
C832        C833   1.403       .  A
C832        H843   1.083       .  S
C833        C834   1.386       .  A
C834        C835   1.407       .  A
C835        C836   1.408       .  A
C835        H844   1.083       .  S
C836        C839   1.377       .  A
S837        C838   1.725       .  A
C838        C839   1.391       .  A
C839        H845   1.083       .  S
S840        C841   1.726       .  A
C841        C842   1.389   1_556  A
C842        H846   1.083       .  S
C847        S853   1.711       .  A
C847        C852   1.386       .  A
C848        C849   1.406       .  A
C848        H859   1.081   1_554  S
C849        C858   1.375   1_554  A
C850        S856   1.706       .  A
C850        C851   1.401       .  A
C851        C852   1.402       .  A
C851        H860   1.081       .  S
C852        C855   1.371       .  A
S853        C854   1.727       .  A
C854        C855   1.388       .  A
C855        H861   1.082       .  S
C857        C858   1.389       .  A
C858        H862   1.082       .  S
C863        S869   1.706       .  A
C863        C868   1.387       .  A
C863        C864   1.403       .  A
C864        C865   1.403       .  A
C864        H875   1.081       .  S
C865        C874   1.374       .  A
C865        C866   1.387       .  A
C866        S872   1.702       .  A
C866        C867   1.400       .  A
C867        C868   1.400       .  A
C867        H876   1.081       .  S
C868        C871   1.370       .  A
S869        C870   1.724       .  A
C870        C871   1.385       .  A
C871        H877   1.082       .  S
S872        C873   1.724       .  A
C873        C874   1.388       .  A
C874        H878   1.082       .  S
C879        S885   1.698       .  A
C879        C884   1.387       .  A
C879        C880   1.398       .  A
C880        C881   1.398       .  A
C880        H891   1.082       .  S
C881        C890   1.368       .  A
C881        C882   1.386       .  A
C882        S888   1.715       .  A
C882        C883   1.410       .  A
C883        C884   1.409       .  A
C883        H892   1.082       .  S
C884        C887   1.382       .  A
S885        C886   1.724       .  A
C886        C887   1.392       .  A
C887        H893   1.082       .  S
S888        C889   1.727       .  A
C889        C890   1.384       .  A
C890        H894   1.082       .  S
C895        S901   1.710       .  A
C895        C900   1.387       .  A
C895        C896   1.403       .  A
C896        C897   1.404       .  A
C896        H907   1.084       .  S
C897        C906   1.371       .  A
C897        C898   1.387       .  A
C898        S904   1.709       .  A
C898        C899   1.401       .  A
C899        C900   1.402       .  A
C899        H908   1.084       .  S
C900        C903   1.369       .  A
S901        C902   1.724       .  A
C902        C903   1.386       .  A
C903        H909   1.084       .  S
S904        C905   1.722       .  A
C905        C906   1.387       .  A
C906        H910   1.083       .  S
C911        S917   1.711       .  A
C911        C916   1.387       .  A
C911        C912   1.401       .  A
C912        C913   1.404       .  A
C912        H923   1.082       .  S
C913        C922   1.368       .  A
C913        C914   1.386       .  A
C914        S920   1.710       .  A
C914        C915   1.401       .  A
C915        C916   1.403       .  A
C915        H924   1.082       .  S
C916        C919   1.368       .  A
S917        C918   1.722   1_455  A
C918        C919   1.387   1_655  A
C919        H925   1.082       .  S
S920        C921   1.723       .  A
C921        C922   1.388       .  A
C922        H926   1.082       .  S
C927        S933   1.716       .  A
C927        C932   1.386       .  A
C927        C928   1.407       .  A
C928        C929   1.408       .  A
C928        H939   1.082       .  S
C929        C938   1.377       .  A
C929        C930   1.387       .  A
C930        S936   1.701       .  A
C930        C931   1.397       .  A
C931        C932   1.398       .  A
C934        C935   1.384       .  A
C935        H941   1.083       .  S
S936        C937   1.722       .  A
C937        C938   1.390       .  A
C938        H942   1.083       .  S
C943        C948   1.387       .  A
C943        C944   1.398       .  A
C944        C945   1.399       .  A
C944        H955   1.083       .  S
C945        C954   1.367       .  A
C945        C946   1.386       .  A
C946        S952   1.712       .  A
C946        C947   1.406       .  A
C947        C948   1.407       .  A
C947        H956   1.083       .  S
S949        C950   1.722       .  A
C950        C951   1.389   1_556  A
C951        H957   1.083       .  S
S952        C953   1.726       .  A
C953        C954   1.385       .  A
C954        H958   1.084       .  S
C959        S965   1.712       .  A
C959        C964   1.386       .  A
C959        C960   1.407       .  A
C960        C961   1.407       .  A
C960        H971   1.083       .  S
C961        C970   1.378       .  A
C962        S968   1.703       .  A
C962        C963   1.400   1_556  A
C963        H972   1.083   1_554  S
C964        C967   1.370       .  A
S965        C966   1.727       .  A
C966        C967   1.387       .  A
C967        H973   1.083       .  S
S968        C969   1.723       .  A
C970        H974   1.083       .  S
C975        S981   1.699       .  A
C975        C980   1.387       .  A
C976        C977   1.395       .  A
C976        H987   1.082   1_554  S
C977        C986   1.360   1_554  A
C978        S984   1.720       .  A
C978        C979   1.408       .  A
C979        C980   1.410       .  A
C979        H988   1.082       .  S
C980        C983   1.376       .  A
S981        C982   1.719       .  A
C982        C983   1.391       .  A
C983        H989   1.082       .  S
C985        C986   1.382       .  A
C986        H990   1.083       .  S
C991        S997   1.711       .  A
C991        C996   1.387       .  A
C991        C992   1.402       .  A
C992        C993   1.404       .  A
C992       H1003   1.082       .  S
C993       C1002   1.369       .  A
C993        C994   1.387       .  A
C994       S1000   1.705       .  A
C994        C995   1.398       .  A
C995        C996   1.400       .  A
C995       H1004   1.082       .  S
C996        C999   1.365       .  A
S997        C998   1.723       .  A
C998        C999   1.384       .  A
C999       H1005   1.083       .  S
S1000      C1001   1.720       .  A
C1001      C1002   1.388       .  A
C1002      H1006   1.082       .  S
C1007      S1013   1.708       .  A
C1007      C1012   1.387       .  A
C1007      C1008   1.404       .  A
C1008      C1009   1.404       .  A
C1008      H1019   1.082       .  S
C1009      C1018   1.373       .  A
C1009      C1010   1.387       .  A
C1010      S1016   1.708       .  A
C1010      C1011   1.402       .  A
C1011      C1012   1.403       .  A
C1011      H1020   1.082       .  S
C1012      C1015   1.373       .  A
S1013      C1014   1.725       .  A
C1014      C1015   1.387       .  A
C1015      H1021   1.082       .  S
S1016      C1017   1.722       .  A
C1017      C1018   1.387       .  A
C1018      H1022   1.082       .  S
C1023      S1029   1.703       .  A
C1023      C1028   1.387       .  A
C1023      C1024   1.399       .  A
C1024      C1025   1.400       .  A
C1024      H1035   1.082       .  S
C1025      C1034   1.367       .  A
C1025      C1026   1.386       .  A
C1026      S1032   1.713       .  A
C1026      C1027   1.405       .  A
C1027      C1028   1.406       .  A
C1027      H1036   1.082       .  S
C1028      C1031   1.374       .  A
S1029      C1030   1.723       .  A
C1030      C1031   1.389       .  A
C1031      H1037   1.082       .  S
S1032      C1033   1.724       .  A
C1033      C1034   1.386       .  A
C1034      H1038   1.082       .  S
C1039      S1045   1.695       .  A
C1039      C1044   1.388       .  A
C1039      C1040   1.397       .  A
C1040      C1041   1.396       .  A
C1040      H1051   1.083       .  S
C1041      C1050   1.368       .  A
C1041      C1042   1.387       .  A
C1042      S1048   1.708       .  A
C1042      C1043   1.406       .  A
C1043      C1044   1.405       .  A
C1043      H1052   1.082       .  S
C1044      C1047   1.378       .  A
S1045      C1046   1.723       .  A
C1046      C1047   1.388       .  A
C1047      H1053   1.082       .  S
S1048      C1049   1.727       .  A
C1049      C1050   1.383       .  A
C1050      H1054   1.083       .  S
C1055      S1061   1.706       .  A
C1055      C1060   1.387       .  A
C1055      C1056   1.401       .  A
C1056      C1057   1.402       .  A
C1056      H1067   1.082       .  S
C1057      C1058   1.387       .  A
C1058      C1059   1.401       .  A
C1059      C1060   1.402       .  A
C1059      H1068   1.082       .  S
C1060      C1063   1.370       .  A
S1061      C1062   1.723       .  A
C1062      C1063   1.387       .  A
C1063      H1069   1.082       .  S
S1064      C1065   1.723   1_554  A
C1065      C1066   1.385       .  A
C1066      H1070   1.082       .  S
C1071      S1077   1.699       .  A
C1071      C1076   1.387       .  A
C1071      C1072   1.399       .  A
C1072      C1073   1.398       .  A
C1072      H1083   1.083       .  S
C1073      C1082   1.370       .  A
C1074      S1080   1.705       .  A
C1075      C1076   1.403       .  A
C1076      C1079   1.375       .  A
S1077      C1078   1.723       .  A
C1078      C1079   1.387       .  A
C1079      H1085   1.083       .  S
S1080      C1081   1.727       .  A
C1082      H1086   1.083       .  S
