geometry optimzed in LAMMPS
_audit_creation_date              2020-11-30 
_audit_creation_method            'lammps2cif' 
_symmetry_space_group_name_H-M    'P1' 
_symmetry_Int_Tables_number       1 
_symmetry_cell_setting            triclinic 
loop_ 
_symmetry_equiv_pos_as_xyz 
  x,y,z 
_cell_length_a                    41.711803839168944 
_cell_length_b                    41.902625301379544 
_cell_length_c                    41.61266633860493 
_cell_angle_alpha                 89.69995609612337 
_cell_angle_beta                  91.68373925099395 
_cell_angle_gamma                 87.74546898105729 
loop_ 
_atom_site_label 
_atom_site_type_symbol 
_atom_site_fract_x 
_atom_site_fract_y 
_atom_site_fract_z 
_atom_site_charge 
C1          C  0.45561206  0.33366253  0.61146576     0.42540
N2          N  0.45252766  0.32591021  0.56101096     0.01430
C3          C  0.42296665  0.22642329  0.46823056    -0.06440
H4          H  0.55195318  0.23437994  0.56925062     0.06930
C5          C  0.58054896  0.29059362  0.49071486    -0.06790
Co6        Co  0.44085893  0.25783244  0.54579413     0.74180
N7          N  0.50373237  0.22951950  0.54817780    -0.25970
Co8        Co  0.49986824  0.23347024  0.49470937     0.74070
C9          C  0.59802755  0.26270276  0.50396928     0.42650
N10         N  0.51673391  0.34364638  0.49845424     0.01050
N11         N  0.54767608  0.25211317  0.49709042     0.01160
N12         N  0.40166587  0.21572399  0.51495839    -0.46820
H13         H  0.44518718  0.28195501  0.62243453     0.06910
N14         N  0.47672034  0.23134801  0.56322800     0.01440
N15         N  0.49871331  0.24248920  0.44326532     0.01180
C16         C  0.50023588  0.24533777  0.39123350     0.42790
N17         N  0.49222046  0.35741695  0.51269480    -0.25430
C18         C  0.37271020  0.28321939  0.53681237    -0.06350
N19         N  0.45637103  0.34820607  0.58268646    -0.46530
N20         N  0.49521630  0.22493149  0.41651206    -0.46760
C21         C  0.35701145  0.31096124  0.52160580     0.42560
N22         N  0.43260563  0.21961658  0.51805590     0.01430
N23         N  0.44541787  0.33942265  0.46387653    -0.25450
N24         N  0.44975823  0.29729784  0.57382344    -0.25940
N25         N  0.46955447  0.32966800  0.44644544     0.01070
H26         H  0.39628349  0.35457729  0.45252896     0.06960
H27         H  0.51239987  0.29766487  0.39215235     0.06990
N28         N  0.44761755  0.22218437  0.49097340    -0.25990
N29         N  0.55009592  0.28195141  0.48739370    -0.25600
N30         N  0.40684253  0.31033811  0.51119293     0.01430
C31         C  0.50917872  0.23241989  0.60423055     0.42830
C32         C  0.50003105  0.38744071  0.52027399    -0.06850
N33         N  0.50519078  0.27191898  0.43574672    -0.25600
H34         H  0.58954329  0.31340822  0.48378509     0.06980
N35         N  0.47901170  0.23095236  0.59432525    -0.46820
H36         H  0.48370140  0.40577326  0.52922145     0.06970
C37         C  0.43044615  0.33960025  0.41256072     0.42670
C38         C  0.45043212  0.30024751  0.60565533    -0.06350
Co39       Co  0.44887647  0.33411752  0.51237889     0.73820
N40         N  0.54116321  0.36209218  0.49602774    -0.46540
C41         C  0.39141929  0.22236573  0.48497894     0.42930
N42         N  0.37976419  0.32628648  0.50619761    -0.46530
Co43       Co  0.51071009  0.30715014  0.46739010     0.73890
C44         C  0.50721069  0.27568444  0.40437359    -0.06860
C45         C  0.52665714  0.23140050  0.57268309    -0.06420
N46         N  0.40312536  0.28418552  0.52790803    -0.25950
N47         N  0.57618126  0.23943449  0.50737872    -0.46710
H48         H  0.42611456  0.23456072  0.44386614     0.06940
C49         C  0.41987845  0.34719486  0.44470096    -0.06830
Cl50       Cl  0.47591586  0.28327544  0.50552553    -0.49840
C51         C  0.53276151  0.39040296  0.50860498     0.42690
H52         H  0.36383854  0.26704348  0.55449779     0.06910
N53         N  0.46157219  0.32953341  0.41555188    -0.46550
C54         C  0.44438002  0.42947835  0.33318124     0.42540
N55         N  0.48067815  0.45872910  0.31539765     0.01430
C56         C  0.47912787  0.62218658  0.29864155    -0.06440
H57         H  0.37973656  0.58276692  0.26017935     0.06930
C58         C  0.42938921  0.49840254  0.19906041    -0.06790
Co59       Co  0.47027950  0.52805802  0.32632682     0.74180
N60         N  0.41932133  0.55412877  0.28085157    -0.25970
Co61       Co  0.45665209  0.56731501  0.25430211     0.74070
C62         C  0.39892711  0.51839104  0.20236060     0.42650
N63         N  0.49761133  0.45885022  0.22295112     0.01050
N64         N  0.44050493  0.54506823  0.21475048     0.01160
N65         N  0.48650866  0.59453697  0.34528792    -0.46820
H66         H  0.41696482  0.47339653  0.35430330     0.06910
N67         N  0.42392984  0.53846757  0.30827465     0.01440
N68         N  0.49203793  0.58050971  0.22947272     0.01180
C69         C  0.52393750  0.61756961  0.21823202     0.42790
N70         N  0.50287735  0.44770631  0.25228486    -0.25430
C71         C  0.54011578  0.53784720  0.35666345    -0.06350
N72         N  0.47175433  0.42911668  0.31737878    -0.46530
N73         N  0.49631386  0.61089364  0.23026781    -0.46760
C74         C  0.57193661  0.52242658  0.35134272     0.42560
N75         N  0.47816346  0.57576837  0.32162878     0.01430
N76         N  0.55683648  0.48445271  0.26296272    -0.25450
N77         N  0.46119189  0.47936282  0.32935596    -0.25940
N78         N  0.55370647  0.49992247  0.23522971     0.01070
H79         H  0.59656236  0.46130480  0.28890145     0.06960
H80         H  0.56034346  0.57849979  0.19873101     0.06990
N81         N  0.47345269  0.59115818  0.29416490    -0.25990
N82         N  0.45427017  0.51775872  0.20630655    -0.25600
N83         N  0.53543126  0.49581701  0.32826354     0.01430
C84         C  0.37516814  0.55569077  0.30742671     0.42830
C85         C  0.50046705  0.41661565  0.25356231    -0.06850
N86         N  0.51452453  0.56256707  0.21638961    -0.25600
H87         H  0.43189428  0.47296447  0.19513705     0.06980
N88         N  0.39783427  0.53914818  0.32525635    -0.46820
H89         H  0.50690975  0.40200376  0.27414034     0.06970
C90         C  0.60426728  0.48780421  0.24203416     0.42670
C91         C  0.43715821  0.46304410  0.34175461    -0.06350
Co92       Co  0.51881563  0.47185969  0.28999878     0.73820
N93         N  0.49108101  0.43460880  0.20293468    -0.46540
C94         C  0.48758573  0.62390791  0.33254743     0.42930
N95         N  0.56638073  0.49636422  0.33431030    -0.46530
Co96       Co  0.50547488  0.50999177  0.21758601     0.73890
C97         C  0.53726077  0.58449890  0.20874474    -0.06860
C98         C  0.38913962  0.56596344  0.27822681    -0.06420
N99         N  0.51883649  0.51956880  0.34104806    -0.25950
N100        N  0.40937186  0.54681975  0.21055389    -0.46710
H101        H  0.47644514  0.64112208  0.28091198     0.06940
C102        C  0.58740983  0.47558545  0.26874001    -0.06830
Cl103      Cl  0.48801485  0.51925161  0.27193776    -0.49840
C104        C  0.49186217  0.40746752  0.22194867     0.42690
H105        H  0.53480645  0.56094892  0.36702857     0.06910
N106        N  0.58218863  0.50324095  0.22190371    -0.46550
C107        C  0.43639787  0.68531538  0.53622399     0.42540
N108        N  0.48426422  0.69937097  0.53887404     0.01430
C109        C  0.54624468  0.82834146  0.57676683    -0.06440
H110        H  0.44879084  0.81577774  0.45006127     0.06930
C111        C  0.54604645  0.75782997  0.41645380    -0.06790
Co112      Co  0.48375330  0.76775777  0.55716688     0.74180
N113        N  0.47108786  0.80303265  0.49695514    -0.25970
Co114      Co  0.52474322  0.80925493  0.50120558     0.74070
C115        C  0.52488887  0.78109129  0.40053598     0.42650
N116        N  0.55301788  0.70134268  0.47400888     0.01050
N117        N  0.52768505  0.79183089  0.45164720     0.01160
N118        N  0.50115917  0.81593772  0.60003650    -0.46820
H119        H  0.41585401  0.73366400  0.55179490     0.06910
N120        N  0.45796907  0.78825371  0.52096527     0.01440
N121        N  0.57782076  0.81057348  0.50432576     0.01180
C122        C  0.62994585  0.81665297  0.50763097     0.42790
N123        N  0.53655019  0.68484683  0.49423175    -0.25430
C124        C  0.51143368  0.75037419  0.62447419    -0.06350
N125        N  0.46678683  0.67461445  0.53166055    -0.46530
N126        N  0.60037005  0.83050345  0.51526739    -0.46760
C127        C  0.53304223  0.72544230  0.63832591     0.42560
N128        N  0.49945198  0.81116342  0.56889598     0.01430
N129        N  0.58277636  0.70689653  0.54488316    -0.25450
N130        N  0.46649319  0.72474792  0.54637580    -0.25940
N131        N  0.59579539  0.72359261  0.52236738     0.01070
H132        H  0.60106556  0.69098347  0.59201735     0.06960
H133        H  0.64014157  0.76882802  0.48437845     0.06990
N134        N  0.52421189  0.82051480  0.55312000    -0.25990
N135        N  0.54592395  0.76579617  0.44733583    -0.25600
N136        N  0.53072222  0.72108191  0.58686992     0.01430
C137        C  0.41647552  0.79240840  0.48809664     0.42830
C138        C  0.52390522  0.66054304  0.47768356    -0.06850
N139        N  0.59207548  0.78488212  0.49278463    -0.25600
H140        H  0.55972630  0.73813942  0.40621843     0.06980
N141        N  0.42747461  0.78219409  0.51681650    -0.46820
H142        H  0.50792194  0.64324695  0.48695711     0.06970
C143        C  0.63317748  0.71872561  0.55882608     0.42670
C144        C  0.43592749  0.71776190  0.54616788    -0.06350
Co145      Co  0.53356940  0.70147866  0.54149377     0.73820
N146        N  0.55399492  0.68939619  0.44511975    -0.46540
C147        C  0.53030915  0.82512280  0.60870560     0.42930
N148        N  0.54432445  0.70862969  0.61319019    -0.46530
Co149      Co  0.57144524  0.74363460  0.48399083     0.73890
C150        C  0.62340579  0.78750426  0.49181921    -0.06860
C151        C  0.44630877  0.80637919  0.47407140    -0.06420
N152        N  0.51148116  0.74577806  0.59286713    -0.25950
N153        N  0.51398015  0.80190102  0.42358428    -0.46710
H154        H  0.57111246  0.83300466  0.57281434     0.06940
C155        C  0.60499639  0.70183715  0.56896288    -0.06830
Cl156      Cl  0.52815161  0.75564106  0.52042163    -0.49840
C157        C  0.53649647  0.66363585  0.44517391     0.42690
H158        H  0.49522484  0.76660700  0.63671564     0.06910
N159        N  0.62506170  0.73100074  0.52982293    -0.46550
C160        C  0.67460068  0.57245465  0.37616243     0.42540
N161        N  0.67892906  0.56645351  0.42695284     0.01430
C162        C  0.79260704  0.59950807  0.53193555    -0.06440
H163        H  0.79541677  0.47386256  0.43991123     0.06930
C164        C  0.72077667  0.44250836  0.51176740    -0.06790
Co165      Co  0.74366081  0.58277413  0.45061762     0.74180
N166        N  0.78198298  0.52249711  0.45406208    -0.25970
Co167      Co  0.77414246  0.52587836  0.50629949     0.74070
C168        C  0.75027852  0.42587205  0.50429361     0.42650
N169        N  0.66372743  0.49890651  0.49256081     0.01050
N170        N  0.75810368  0.47684863  0.50554413     0.01160
N171        N  0.78318634  0.62484081  0.48579263    -0.46820
H172        H  0.72797387  0.58211060  0.37142588     0.06910
N173        N  0.77269954  0.54702961  0.43561865     0.01440
N174        N  0.76164803  0.52821887  0.55600968     0.01180
C175        C  0.75863166  0.53207443  0.60797113     0.42790
N176        N  0.65104148  0.52124766  0.47318401    -0.25430
C177        C  0.71810031  0.64849247  0.47502005    -0.06350
N178        N  0.65807195  0.56637329  0.40269794    -0.46530
N179        N  0.77823808  0.53639592  0.58261917    -0.46760
C180        C  0.69129153  0.65849196  0.49403795     0.42560
N181        N  0.77847568  0.59434684  0.48271461     0.01430
N182        N  0.65776682  0.56867258  0.52335899    -0.25450
N183        N  0.70814431  0.57210769  0.41770934    -0.25940
N184        N  0.66964558  0.54583516  0.54250870     0.01070
H185        H  0.63556532  0.61514886  0.53338721     0.06960
H186        H  0.70728038  0.51497159  0.60688965     0.06990
N187        N  0.78517016  0.57722062  0.50871675    -0.25990
N188        N  0.72776008  0.47312535  0.51224071    -0.25600
N189        N  0.68420324  0.61162783  0.47726256     0.01430
C190        C  0.78466654  0.51200373  0.39954999     0.42830
C191        C  0.62474472  0.51026008  0.45851985    -0.06850
N192        N  0.73246066  0.51976530  0.56270293    -0.25600
H193        H  0.69811466  0.43292624  0.51819228     0.06980
N194        N  0.77457866  0.54202852  0.40470948    -0.46820
H195        H  0.60770704  0.52423780  0.44361886     0.06970
C196        C  0.65414259  0.58220093  0.57430138     0.42670
C197        C  0.70799984  0.57537231  0.38564274    -0.06350
Co198      Co  0.66712859  0.56704565  0.47479057     0.73820
N199        N  0.64693408  0.47294793  0.49253104    -0.46540
C200        C  0.79107923  0.63222856  0.51593816     0.42930
N201        N  0.67054593  0.63508522  0.49327825    -0.46530
Co202      Co  0.69820535  0.50910684  0.52730475     0.73890
C203        C  0.72881537  0.52060781  0.59453895    -0.06860
C204        C  0.78958680  0.49836136  0.43302299    -0.06420
N205        N  0.71289156  0.61824500  0.46754934    -0.25950
N206        N  0.77312928  0.44834863  0.50109479    -0.46710
H207        H  0.79630635  0.59426027  0.55726219     0.06940
C208        C  0.64581820  0.59243240  0.54162191    -0.06830
Cl209      Cl  0.72091535  0.54581042  0.48968184    -0.49840
C210        C  0.62232457  0.47807797  0.47129740     0.42690
H211        H  0.73894607  0.66125638  0.47006878     0.06910
N212        N  0.66773060  0.55290999  0.57298159    -0.46550
C213        C  0.53898440  0.41700194  0.66035614     0.42540
N214        N  0.53740688  0.46784738  0.66473344     0.01430
C215        C  0.58256580  0.55512484  0.79365353    -0.06440
H216        H  0.47946267  0.45168473  0.79967409     0.06930
C217        C  0.41420822  0.52875689  0.73959225    -0.06790
Co218      Co  0.56601951  0.48757741  0.72677356     0.74180
N219        N  0.51858342  0.47504361  0.77665445    -0.25970
Co220      Co  0.50997777  0.52721172  0.77480914     0.74070
C221        C  0.40566432  0.50996373  0.76612867     0.42650
N222        N  0.45748817  0.51309856  0.67984657     0.01050
N223        N  0.45755323  0.51924614  0.76909469     0.01160
N224        N  0.61092664  0.51870374  0.76640971    -0.46820
H225        H  0.56678298  0.41001692  0.70807488     0.06910
N226        N  0.54234884  0.46222565  0.75990496     0.01440
N227        N  0.50233693  0.57919360  0.76436981     0.01180
C228        C  0.50471815  0.63153753  0.75768788     0.42790
N229        N  0.47575636  0.50224766  0.65689532    -0.25430
C230        C  0.61303286  0.53456614  0.69639981    -0.06350
N231        N  0.52826307  0.44444726  0.64604086    -0.46530
N232        N  0.51615605  0.60559911  0.77595514    -0.46760
C233        C  0.60966527  0.55797246  0.67071188     0.42560
N234        N  0.58017833  0.51518439  0.76245617     0.01430
N235        N  0.50930545  0.56268404  0.65295214    -0.25450
N236        N  0.55292757  0.45738517  0.69075277    -0.25940
N237        N  0.48522079  0.57333935  0.66963527     0.01070
H238        H  0.53907662  0.58679590  0.61946255     0.06960
H239        H  0.47156732  0.63032883  0.71347975     0.06990
N240        N  0.56173312  0.53468933  0.77903836    -0.25990
N241        N  0.44535607  0.53210013  0.74270326    -0.25600
N242        N  0.57011946  0.52753001  0.66741671     0.01430
C243        C  0.51957391  0.42025583  0.77633982     0.42830
C244        C  0.45927763  0.48011701  0.64083472    -0.06850
N245        N  0.48425186  0.58654149  0.73854245    -0.25600
H246        H  0.39949501  0.53693328  0.71907438     0.06980
N247        N  0.54391532  0.43086154  0.75987337    -0.46820
H248        H  0.46834168  0.46533143  0.62164363     0.06970
C249        C  0.49711382  0.61444080  0.64334139     0.42670
C250        C  0.55601018  0.42555792  0.68961811    -0.06350
Co251      Co  0.52354660  0.51509959  0.65892323     0.73820
N252        N  0.43145122  0.49715888  0.68281772    -0.46540
C253        C  0.61589802  0.54355895  0.78500616     0.42930
N254        N  0.58311087  0.55176872  0.65328909    -0.46530
Co255      Co  0.46815940  0.55133462  0.70765868     0.73890
C256        C  0.48344492  0.61812558  0.73354873    -0.06860
C257        C  0.50195127  0.44982195  0.78742030    -0.06420
N258        N  0.58669387  0.51729544  0.69329142    -0.25950
N259        N  0.43394466  0.50435918  0.78440607    -0.46710
H260        H  0.57566311  0.57519374  0.80850904     0.06940
C261        C  0.51898620  0.58731498  0.63531188    -0.06830
Cl262      Cl  0.51712211  0.52050410  0.71737988    -0.49840
C263        C  0.42847358  0.47812362  0.65742717     0.42690
H264        H  0.63080229  0.53343602  0.71566305     0.06910
N265        N  0.47623556  0.60289478  0.66329803    -0.46550
C266        C  0.32595654  0.43026074  0.54360055     0.42540
N267        N  0.30819208  0.46262215  0.50696582     0.01430
C268        C  0.29576551  0.62070725  0.51830219    -0.06440
H269        H  0.27578124  0.55798043  0.61942305     0.06930
C270        C  0.20690564  0.49287014  0.56472345    -0.06790
Co271      Co  0.32663475  0.52698760  0.51343320     0.74180
N272        N  0.28982795  0.54557842  0.57131412    -0.25970
Co273      Co  0.25614633  0.56551771  0.53962781     0.74070
C274        C  0.21511750  0.50746842  0.59705406     0.42650
N275        N  0.21897864  0.46341212  0.49067889     0.01050
N276        N  0.22097891  0.54053272  0.55759019     0.01160
N277        N  0.33868301  0.59533636  0.49756262    -0.46820
H278        H  0.36367723  0.46560097  0.56059787     0.06910
N279        N  0.31516186  0.53002702  0.56041870     0.01440
N280        N  0.22325637  0.58547595  0.50938622     0.01180
C281        C  0.21905554  0.62616955  0.47642903     0.42790
N282        N  0.24707144  0.45241895  0.48172291    -0.25430
C283        C  0.35181642  0.53984703  0.44447452    -0.06350
N284        N  0.30184311  0.43670949  0.52255644    -0.46530
N285        N  0.22443463  0.61651197  0.50662566    -0.46760
C286        C  0.34364269  0.52581106  0.41315777     0.42560
N287        N  0.31779115  0.57509511  0.50746156     0.01430
N288        N  0.25319405  0.49562174  0.43217676    -0.25450
N289        N  0.33164525  0.47795582  0.52012492    -0.25940
N290        N  0.22643171  0.51250291  0.43698330     0.01070
H291        H  0.27643198  0.47626353  0.39139686     0.06960
H292        H  0.20743298  0.59032769  0.43485485     0.06990
N293        N  0.29217191  0.58951103  0.51924851    -0.25990
N294        N  0.21030289  0.51600485  0.54141850    -0.25600
N295        N  0.31991867  0.50125196  0.44992114     0.01430
C296        C  0.32014884  0.52530309  0.61105533     0.42830
C297        C  0.24883247  0.42100307  0.48020081    -0.06850
N298        N  0.21397039  0.57029387  0.48345339    -0.25600
H299        H  0.20271284  0.46804248  0.55984053     0.06980
N300        N  0.33346081  0.51717513  0.58328748    -0.46820
H301        H  0.26927829  0.40669402  0.47241600     0.06970
C302        C  0.23136161  0.50804870  0.38524056     0.42670
C303        C  0.34599765  0.45857201  0.54275516    -0.06350
Co304      Co  0.28257248  0.47806675  0.46787995     0.73820
N305        N  0.20058225  0.43852325  0.49740046    -0.46540
C306        C  0.32594110  0.62467774  0.50301948     0.42930
N307        N  0.32447979  0.50194120  0.41903163    -0.46530
Co308      Co  0.21428091  0.51622482  0.48787904     0.73890
C309        C  0.21154502  0.59436605  0.46026149    -0.06860
C310        C  0.29184907  0.54546710  0.60356717    -0.06420
N311        N  0.33563150  0.52281760  0.46566615    -0.25950
N312        N  0.22238166  0.53690395  0.58881614    -0.46710
H313        H  0.28164328  0.63758967  0.53158297     0.06940
C314        C  0.25731837  0.49074642  0.40131935    -0.06830
Cl315      Cl  0.26948262  0.52185160  0.50163739    -0.49840
C316        C  0.21898886  0.41110982  0.49089241     0.42690
H317        H  0.36524331  0.56078868  0.44990333     0.06910
N318        N  0.21235056  0.52137807  0.40862917    -0.46550
C319        C  0.85626766  0.57235144  0.94092593     0.42540
N320        N  0.84239332  0.54403610  0.98080268     0.01430
C321        C  0.71281825  0.45761571  0.00698266    -0.06440
H322        H  0.68755364  0.57570853  0.93136655     0.06930
C323        C  0.74727183  0.62461118  0.05055818    -0.06790
Co324      Co  0.78440135  0.50692021  0.96509517     0.74180
N325        N  0.72695182  0.54892728  0.95650532    -0.25970
Co326      Co  0.72088240  0.53629083  0.00819836     0.74070
C327        C  0.72997655  0.63947173  0.02408492     0.42650
N328        N  0.81409713  0.58388399  0.06003390     0.01050
N329        N  0.72631876  0.58761283  0.02068013     0.01160
N330        N  0.75070455  0.44612223  0.97156757    -0.46820
H331        H  0.81670507  0.55209641  0.90820091     0.06910
N332        N  0.75415705  0.53845764  0.94458993     0.01440
N333        N  0.71646534  0.52328284  0.06064966     0.01180
C334        C  0.70893109  0.51076387  0.11169623     0.42790
N335        N  0.83812896  0.57210606  0.04379991    -0.25430
C336        C  0.82001840  0.44397332  0.97543748    -0.06350
N337        N  0.86370681  0.56455196  0.97180675    -0.46530
N338        N  0.70087094  0.50305394  0.07983687    -0.46760
C339        C  0.84312390  0.43222060  0.99898332     0.42560
N340        N  0.74726285  0.47724934  0.97567727     0.01430
N341        N  0.82481793  0.50815559  0.07118872    -0.25450
N342        N  0.82180701  0.53710784  0.95751814    -0.25940
N343        N  0.80048157  0.52130359  0.08637559     0.01070
H344        H  0.85004776  0.46225613  0.07711290     0.06960
H345        H  0.74512951  0.54568341  0.12891471     0.06990
N346        N  0.72468337  0.48562189  0.99599645    -0.25990
N347        N  0.74560667  0.59365035  0.04555568    -0.25600
N348        N  0.83442672  0.48113901  0.00829377     0.01430
C349        C  0.73356263  0.56228079  0.90244069     0.42830
C350        C  0.85907491  0.59523898  0.03993151    -0.06850
N351        N  0.73503906  0.53990706  0.07925289    -0.25600
H352        H  0.76195252  0.63565671  0.06881101     0.06980
N353        N  0.75858208  0.54555013  0.91446097    -0.46820
H354        H  0.88077511  0.59346359  0.02640218     0.06970
C355        C  0.80829888  0.47543491  0.10979842     0.42670
C356        C  0.82884555  0.55355815  0.93135934    -0.06350
Co357      Co  0.83651312  0.52623745  0.02644550     0.73820
N358        N  0.81729705  0.61375579  0.06843407    -0.46540
C359        C  0.73041773  0.43087949  0.99007919     0.42930
N360        N  0.85217578  0.45632522  0.01791404    -0.46530
Co361      Co  0.77403097  0.56000985  0.06780584     0.73890
C362        C  0.73011656  0.53605720  0.10992241    -0.06860
C363        C  0.71132513  0.56450179  0.93079785    -0.06420
N364        N  0.81530507  0.47432243  0.98404966    -0.25950
N365        N  0.71765109  0.61529220  0.00557904    -0.46710
H366        H  0.69572082  0.45580791  0.02587804     0.06940
C367        C  0.83215906  0.47957091  0.08496330    -0.06830
Cl368      Cl  0.77864734  0.53262473  0.01662388    -0.49840
C369        C  0.84479888  0.62272410  0.05650156     0.42690
H370        H  0.80849386  0.43192574  0.95558264     0.06910
N371        N  0.78998889  0.50256797  0.10894793    -0.46550
C372        C  0.94633793  0.53329886  0.86251492     0.42540
N373        N  0.96597676  0.50560878  0.82456963     0.01430
C374        C  0.12289614  0.49486694  0.78344295    -0.06440
H375        H  0.06867910  0.61336320  0.81512247     0.06930
C376        C  0.00218440  0.60105443  0.71621597    -0.06790
Co377      Co  0.03703831  0.49868116  0.82849759     0.74180
N378        N  0.05860287  0.56328120  0.81536693    -0.25970
Co379      Co  0.06646550  0.54576576  0.77021994     0.74070
C380        C  0.01985723  0.62620122  0.73436684     0.42650
N381        N  0.95525633  0.53263679  0.73152878     0.01050
N382        N  0.03757064  0.57918871  0.74846869     0.01160
N383        N  0.10024491  0.46389332  0.81949288    -0.46820
H384        H  0.99579803  0.53628617  0.88806651     0.06910
N385        N  0.04997912  0.54388148  0.83798404     0.01440
N386        N  0.07650444  0.52995818  0.72626748     0.01180
C387        C  0.11384224  0.50157551  0.70345381     0.42790
N388        N  0.94584111  0.51921546  0.75820075    -0.25430
C389        C  0.04232959  0.42701981  0.82127384    -0.06350
N390        N  0.93902093  0.51872343  0.83486333    -0.46530
N391        N  0.10721803  0.52676227  0.72147674    -0.46760
C392        C  0.02243068  0.40194189  0.80945834     0.42560
N393        N  0.08140745  0.48868419  0.81133168     0.01430
N394        N  0.97390057  0.46282764  0.73900609    -0.25450
N395        N  0.99091935  0.51047953  0.84363969    -0.25940
N396        N  0.99423808  0.46977756  0.71687153     0.01070
H397        H  0.94816520  0.42280344  0.75300202     0.06960
H398        H  0.07395315  0.46961390  0.68108227     0.06990
N399        N  0.09386936  0.50739726  0.79011943    -0.25990
N400        N  0.01552365  0.57215657  0.72636475    -0.25600
N401        N  0.99844834  0.44751811  0.80120966     0.01430
C402        C  0.05338254  0.58870068  0.86174103     0.42830
C403        C  0.91563934  0.52684059  0.76385993    -0.06850
N404        N  0.05820597  0.51043820  0.71017094    -0.25600
H405        H  0.98238998  0.60427677  0.69898757     0.06980
N406        N  0.04685458  0.55789423  0.86577309    -0.46820
H407        H  0.90189199  0.51518390  0.78156844     0.06970
C408        C  0.98102290  0.41983496  0.71094653     0.42670
C409        C  0.98073574  0.52734349  0.86894588    -0.06350
Co410      Co  0.97063584  0.48418383  0.78120169     0.73820
N411        N  0.93060178  0.55044473  0.71821342    -0.46540
C412        C  0.12697013  0.46518883  0.80242923     0.42930
N413        N  0.99572956  0.41656874  0.79634977    -0.46530
Co414      Co  0.00596343  0.52094587  0.71831467     0.73890
C415        C  0.08017715  0.49005385  0.69539152    -0.06860
C416        C  0.06180809  0.59235012  0.82801214    -0.06420
N417        N  0.02502808  0.45385761  0.81683357    -0.25950
N418        N  0.04067361  0.60974682  0.75358591    -0.46710
H419        H  0.13988222  0.50557966  0.76818479     0.06940
C420        C  0.96249794  0.43432084  0.73538518    -0.06830
Cl421      Cl  0.01952209  0.51325169  0.77420836    -0.49840
C422        C  0.90500694  0.54804276  0.73844392     0.42690
H423        H  0.06426873  0.42434758  0.83559303     0.06910
N424        N  0.00113459  0.44304997  0.70006689    -0.46550
C425        C  0.28752486  0.50210889  0.88370427     0.42540
N426        N  0.27337464  0.53330487  0.92243081     0.01430
C427        C  0.26587176  0.50510916  0.08813489    -0.06440
H428        H  0.23438430  0.41341947  0.02033161     0.06930
C429        C  0.15231403  0.46581241  0.97794114    -0.06790
Co430      Co  0.29285151  0.51652248  0.99219649     0.74180
N431        N  0.25781765  0.45750656  0.01142965    -0.25970
Co432      Co  0.22872635  0.49144812  0.03307339     0.74070
C433        C  0.16174711  0.43666895  0.99685099     0.42650
N434        N  0.18057519  0.53255341  0.93579901     0.01050
N435        N  0.19016823  0.47443283  0.01221524     0.01160
N436        N  0.30902315  0.52986801  0.07058231    -0.46820
H437        H  0.31502179  0.46835997  0.92092440     0.06910
N438        N  0.28201738  0.46534728  0.99354949     0.01440
N439        N  0.20094709  0.52723778  0.05244709     0.01180
C440        C  0.18463834  0.56402302  0.08446256     0.42790
N441        N  0.20451120  0.54463760  0.92057947    -0.25430
C442        C  0.30300511  0.59439473  0.01101583    -0.06350
N443        N  0.27130603  0.52873412  0.89131381    -0.46530
N444        N  0.20439934  0.53815456  0.08183149    -0.46760
C445        C  0.29221033  0.62557743  0.99432158     0.42560
N446        N  0.29119967  0.51911814  0.04548157     0.01430
N447        N  0.21190997  0.59507079  0.96385554    -0.25450
N448        N  0.29139366  0.51208058  0.93874994    -0.25940
N449        N  0.18831431  0.58461904  0.98060309     0.01070
H450        H  0.22371874  0.64165568  0.94774929     0.06960
H451        H  0.15037315  0.58627818  0.04538343     0.06990
N452        N  0.26579843  0.50619662  0.05672066    -0.25990
N453        N  0.17125075  0.48855560  0.99047766    -0.25600
N454        N  0.28080823  0.58390576  0.96573413     0.01430
C455        C  0.27429130  0.41458250  0.98484934     0.42830
C456        C  0.20113451  0.53907514  0.88955776    -0.06850
N457        N  0.17992728  0.54416976  0.03475871    -0.25600
H458        H  0.13427767  0.46923868  0.95890940     0.06980
N459        N  0.29206726  0.44007522  0.97606025    -0.46820
H460        H  0.21804136  0.54580562  0.87201661     0.06970
C461        C  0.18369505  0.63526883  0.98326599     0.42670
C462        C  0.30124648  0.49030088  0.91590525    -0.06350
Co463      Co  0.24297059  0.56431629  0.94288893     0.73820
N464        N  0.16173817  0.51628767  0.91643269    -0.46540
C465        C  0.29316790  0.52132803  0.09809427     0.42930
N466        N  0.28016209  0.61515046  0.96649991    -0.46530
Co467      Co  0.17837619  0.53739826  0.98497809     0.73890
C468        C  0.16747399  0.56760663  0.05323201    -0.06860
C469        C  0.25276508  0.42634552  0.00880002    -0.06420
N470        N  0.29546127  0.56962043  0.99062422    -0.25950
N471        N  0.18456974  0.44475498  0.01735033    -0.46710
H472        H  0.24713343  0.49560466  0.10242743     0.06940
C473        C  0.20994906  0.62683265  0.96277364    -0.06830
Cl474      Cl  0.23599636  0.52712376  0.98813568    -0.49840
C475        C  0.17385078  0.51904131  0.88678822     0.42690
H476        H  0.31215144  0.59129617  0.03545802     0.06910
N477        N  0.17094973  0.60791468  0.99268077    -0.46550
C478        C  0.89950629  0.49840619  0.15499492     0.42540
N479        N  0.93655163  0.52605815  0.17391280     0.01430
C480        C  0.09773274  0.49755596  0.17213192    -0.06440
H481        H  0.02538414  0.39866492  0.20132318     0.06930
C482        C  0.99374562  0.44090251  0.28898398    -0.06790
Co483      Co  0.00057824  0.50772754  0.15094683     0.74180
N484        N  0.01973918  0.44543499  0.18091144    -0.25970
Co485      Co  0.04555292  0.47127828  0.21269933     0.74070
C486        C  0.00833518  0.40995213  0.27688513     0.42650
N487        N  0.95003058  0.51623358  0.26592469     0.01050
N488        N  0.02506569  0.45008085  0.25046530     0.01160
N489        N  0.06871982  0.52470144  0.13368741    -0.46820
H490        H  0.93351826  0.47168228  0.12086930     0.06910
N491        N  0.00076867  0.45835302  0.15822558     0.01440
N492        N  0.06984080  0.49756429  0.24446453     0.01180
C493        C  0.11243762  0.51967223  0.26235693     0.42790
N494        N  0.93679794  0.53358383  0.24236109    -0.25430
C495        C  0.01348185  0.58030802  0.13070502    -0.06350
N496        N  0.90599733  0.52128496  0.17566581    -0.46530
N497        N  0.10106147  0.49769806  0.24291605    -0.46760
C498        C  0.00015633  0.61079776  0.14328792     0.42560
N499        N  0.05028370  0.50741294  0.15171821     0.01430
N500        N  0.98234217  0.58025026  0.23765772    -0.25450
N501        N  0.95105087  0.50816573  0.15258995    -0.25940
N502        N  0.00161821  0.56997029  0.26137405     0.01070
H503        H  0.96670064  0.62562847  0.21835565     0.06960
H504        H  0.08113615  0.55249339  0.29550554     0.06990
N505        N  0.06673873  0.49260314  0.17508566    -0.25990
N506        N  0.00658965  0.46484510  0.27134443    -0.25600
N507        N  0.98139958  0.57253872  0.16912298     0.01430
C508        C  0.98495976  0.41086621  0.16489242     0.42830
C509        C  0.90523415  0.53410336  0.24291726    -0.06850
N510        N  0.05703018  0.51747959  0.26542800    -0.25600
H511        H  0.97683826  0.44442382  0.30797172     0.06980
N512        N  0.97898568  0.43818444  0.14793562    -0.46820
H513        H  0.88954093  0.54662499  0.22565554     0.06970
C514        C  0.00341645  0.62237441  0.25938321     0.42670
C515        C  0.92903819  0.48989317  0.13853998    -0.06350
Co516      Co  0.95954242  0.55288267  0.20588313     0.73820
N517        N  0.92650221  0.50127786  0.28124816    -0.46540
C518        C  0.09904316  0.51958437  0.14548855     0.42930
N519        N  0.98089525  0.60331649  0.16648475    -0.46530
Co520      Co  0.00388808  0.51725981  0.26840549     0.73890
C521        C  0.08272412  0.53354251  0.27801894    -0.06860
C522        C  0.01337991  0.41507819  0.18460536    -0.06420
N523        N  0.99934091  0.55762580  0.14813384    -0.25950
N524        N  0.02738111  0.41895239  0.25382656    -0.46710
H525        H  0.11648119  0.48904611  0.18862329     0.06940
C526        C  0.98097715  0.61168648  0.23577871    -0.06830
Cl527      Cl  0.00249856  0.51232281  0.20980967    -0.49840
C528        C  0.89720906  0.51224679  0.26744229     0.42690
H529        H  0.03060806  0.57615573  0.11203129     0.06910
N530        N  0.01626417  0.59511228  0.27476339    -0.46550
C531        C  0.90273631  0.25624506  0.01610397     0.42540
N532        N  0.94780733  0.27500408  0.00362949     0.01430
C533        C  0.10926202  0.22895157  0.01873555    -0.06440
H534        H  0.06283654  0.24686407  0.11768052     0.06930
C535        C  0.03153915  0.35470895  0.09140539    -0.06790
Co536      Co  0.00814470  0.23420237  0.00528835     0.74180
N537        N  0.04086594  0.24150404  0.07204504    -0.25970
Co538      Co  0.06774086  0.27164663  0.05045432     0.74070
C539        C  0.02852867  0.33251347  0.11783432     0.42650
N540        N  0.99057669  0.35731757  0.02724727     0.01050
N541        N  0.05349343  0.30885707  0.08016331     0.01160
N542        N  0.08108724  0.22690952  0.97199611    -0.46820
H543        H  0.92795538  0.20668239  0.02815166     0.06910
N544        N  0.01456945  0.22994154  0.05949295     0.01440
N545        N  0.09551050  0.30237839  0.02454879     0.01180
C546        C  0.13251654  0.32105832  0.99594334     0.42790
N547        N  0.96987659  0.33735955  0.01591970    -0.25430
C548        C  0.00055756  0.23015114  0.92306493    -0.06350
N549        N  0.91679536  0.28150982  0.00455797    -0.46530
N550        N  0.12569282  0.29743020  0.01651355    -0.46760
C551        C  0.98217571  0.25310723  0.90008829     0.42560
N552        N  0.06120750  0.22841426  0.99716121     0.01430
N553        N  0.01175338  0.32992283  0.95876175    -0.25450
N554        N  0.95693124  0.24568192  0.01214309    -0.25940
N555        N  0.02939063  0.35138807  0.97261523     0.01070
H556        H  0.01920991  0.30462924  0.91442661     0.06960
H557        H  0.10152535  0.36519542  0.98202905     0.06990
N558        N  0.07864256  0.23398770  0.02291709    -0.25990
N559        N  0.04488071  0.33726043  0.06849073    -0.25600
N560        N  0.98262590  0.27021448  0.94880252     0.01430
C561        C  0.01367893  0.22574385  0.11257803     0.42830
C562        C  0.94163322  0.34457730  0.02737955    -0.06850
N563        N  0.08305545  0.32921659  0.01232397    -0.25600
H564        H  0.01887526  0.37746182  0.08769139     0.06980
N565        N  0.99577347  0.22207990  0.08410058    -0.46820
H566        H  0.91940336  0.33470653  0.01941149     0.06970
C567        C  0.04840758  0.34675658  0.92570491     0.42670
C568        C  0.92946506  0.23136141  0.02083423    -0.06350
Co569      Co  0.97803729  0.30385611  0.98204740     0.73820
N570        N  0.97664375  0.38118655  0.04301442    -0.46540
C571        C  0.11261723  0.22752208  0.98423344     0.42930
N572        N  0.97152982  0.27585498  0.91949176    -0.46530
Co573      Co  0.03752650  0.34535160  0.02041434     0.73890
C574        C  0.10424050  0.34212572  0.99367055    -0.06860
C575        C  0.04387089  0.23688246  0.10309123    -0.06420
N576        N  0.99853720  0.24297435  0.95342717    -0.25950
N577        N  0.04340256  0.30493556  0.10966938    -0.46710
H578        H  0.12549615  0.23749099  0.03696638     0.06940
C579        C  0.02460401  0.32360449  0.93051043    -0.06830
Cl580      Cl  0.02269362  0.28820990  0.01493109    -0.49840
C581        C  0.94525788  0.37419642  0.04366550     0.42690
H582        H  0.01190576  0.20726282  0.91756834     0.06910
N583        N  0.05026672  0.36339589  0.95310295    -0.46550
C584        C  0.89248856  0.73874597  0.04028762     0.42540
N585        N  0.92924136  0.74727523  0.00649545     0.01430
C586        C  0.07471601  0.71496372  0.98639972    -0.06440
H587        H  0.06471279  0.75131807  0.11094479     0.06930
C588        C  0.00077360  0.83166310  0.07576585    -0.06790
Co589      Co  0.98916649  0.71283331  0.02449035     0.74180
N590        N  0.03129242  0.74233161  0.07183003    -0.25970
Co591      Co  0.05056518  0.76400308  0.03389236     0.74070
C592        C  0.02311792  0.82016992  0.10300496     0.42650
N593        N  0.95303759  0.82462550  0.99942033     0.01050
N594        N  0.04190394  0.80701801  0.05667877     0.01160
N595        N  0.04193641  0.67484540  0.99358636    -0.46820
H596        H  0.92797906  0.70955858  0.07334426     0.06910
N597        N  0.00496638  0.72649447  0.06935492     0.01440
N598        N  0.07112219  0.78626108  0.99885906     0.01180
C599        C  0.11552708  0.80797746  0.98789356     0.42790
N600        N  0.94104223  0.80844517  0.97571400    -0.25430
C601        C  0.97734629  0.66903349  0.96831583    -0.06350
N602        N  0.89834546  0.75220634  0.01151980    -0.46530
N603        N  0.10229335  0.78165530  0.99762158    -0.46760
C604        C  0.97294165  0.67282095  0.93358754     0.42560
N605        N  0.03504682  0.69903246  0.01280807     0.01430
N606        N  0.98350040  0.78427356  0.93595691    -0.25450
N607        N  0.94376170  0.73064556  0.03006260    -0.25940
N608        N  0.00165573  0.80859558  0.94359521     0.01070
H609        H  0.96957095  0.76059836  0.89289328     0.06960
H610        H  0.08686339  0.85628460  0.97709806     0.06990
N611        N  0.05549534  0.72190555  0.01032075    -0.25990
N612        N  0.01536253  0.82321698  0.04774561    -0.25600
N613        N  0.96794735  0.71828215  0.95624733     0.01430
C614        C  0.01928501  0.72426252  0.11918943     0.42830
C615        C  0.91000189  0.81166225  0.97264818    -0.06850
N616        N  0.05983213  0.81483996  0.99056757    -0.25600
H617        H  0.97688381  0.84244382  0.07722679     0.06980
N618        N  0.99716139  0.71451273  0.09717939    -0.46820
H619        H  0.89693839  0.79411812  0.95916949     0.06970
C620        C  0.00540708  0.80024764  0.89213067     0.42670
C621        C  0.92309408  0.72512067  0.05280171    -0.06350
Co622      Co  0.95553212  0.76408630  0.96766773     0.73820
N623        N  0.92828819  0.83524083  0.01748717    -0.46540
C624        C  0.06739117  0.68306882  0.97667624     0.42930
N625        N  0.96631015  0.70419527  0.92791496    -0.46530
Co626      Co  0.00672899  0.82116478  0.99577124     0.73890
C627        C  0.08679569  0.83119555  0.98329416    -0.06860
C628        C  0.04253929  0.74152862  0.10214833    -0.06420
N629        N  0.97534800  0.69835033  0.97973324    -0.25950
N630        N  0.04792558  0.80687554  0.08780686    -0.46710
H631        H  0.09355912  0.72918678  0.97761139     0.06940
C632        C  0.98393690  0.77798924  0.90499308    -0.06830
Cl633      Cl  0.00031728  0.76589965  0.00525191    -0.49840
C634        C  0.89983860  0.82764522  0.00099097     0.42690
H635        H  0.98553609  0.64851216  0.98256133     0.06910
N636        N  0.01628993  0.81868106  0.91721802    -0.46550
C637        C  0.61541924  0.75186338  0.00983406     0.42540
N638        N  0.56774087  0.76736245  0.02268074     0.01430
C639        C  0.40998963  0.74282287  0.97526057    -0.06440
H640        H  0.47935292  0.78633070  0.89025767     0.06930
C641        C  0.48429417  0.88080032  0.95371607    -0.06790
Co642      Co  0.50868094  0.73362111  0.00155127     0.74180
N643        N  0.48863355  0.76505258  0.93676695    -0.25970
Co644      Co  0.45613023  0.78926206  0.96341391     0.74070
C645        C  0.48032091  0.87286782  0.92037330     0.42650
N646        N  0.53023537  0.85541859  0.01520973     0.01050
N647        N  0.47094017  0.83216857  0.94768118     0.01160
N648        N  0.43340520  0.71575532  0.01713671    -0.46820
H649        H  0.59380459  0.71094530  0.97877636     0.06910
N650        N  0.50946459  0.74322824  0.94891367     0.01440
N651        N  0.42480023  0.81274992  0.99541295     0.01180
C652        C  0.38401374  0.82851508  0.02319175     0.42790
N653        N  0.55044209  0.83376883  0.02802425    -0.25430
C654        C  0.49791950  0.71179810  0.07931641    -0.06350
N655        N  0.59820682  0.77264644  0.02643980    -0.46530
N656        N  0.39372990  0.80908522  0.99895223    -0.46760
C657        C  0.51133902  0.72620907  0.10991959     0.42560
N658        N  0.45575514  0.72924682  0.99923744     0.01430
N659        N  0.50512266  0.81640984  0.07645787    -0.25450
N660        N  0.56076096  0.74281668  0.00461265    -0.25940
N661        N  0.48601405  0.83926946  0.06480907     0.01070
H662        H  0.52481319  0.80584468  0.12324800     0.06960
H663        H  0.41588158  0.86016644  0.05454418     0.06990
N664        N  0.44096227  0.74728846  0.97719912    -0.25990
N665        N  0.47845232  0.85403191  0.96869835    -0.25600
N666        N  0.52487008  0.75221516  0.06866780     0.01430
C667        C  0.52032702  0.74945736  0.89815724     0.42830
C668        C  0.58005046  0.84129014  0.02183161    -0.06850
N669        N  0.43614179  0.83309587  0.01635328    -0.25600
H670        H  0.49190920  0.90262485  0.96485018     0.06980
N671        N  0.52977475  0.73336941  0.92605483    -0.46820
H672        H  0.60204858  0.82889965  0.02964969     0.06970
C673        C  0.49139743  0.84901995  0.11488029     0.42670
C674        C  0.59016050  0.73138138  0.99419219    -0.06350
Co675      Co  0.53683791  0.79244709  0.04865413     0.73820
N676        N  0.54481812  0.87789624  0.99922410    -0.46540
C677        C  0.40380762  0.72332413  0.00230159     0.42930
N678        N  0.52749590  0.75043038  0.09986905    -0.46530
Co679      Co  0.48229264  0.84642066  0.01639125     0.73890
C680        C  0.41318288  0.84249591  0.03589678    -0.06860
C681        C  0.49309185  0.76971935  0.90570340    -0.06420
N682        N  0.50897337  0.72958632  0.05437072    -0.25950
N683        N  0.47259111  0.84219919  0.91760874    -0.46710
H684        H  0.39301352  0.75839390  0.96191922     0.06940
C685        C  0.50682277  0.81843810  0.10820642    -0.06830
Cl686      Cl  0.49623961  0.79006983  0.00725129    -0.49840
C687        C  0.57615254  0.86881949  0.00159253     0.42690
H688        H  0.48294780  0.69142648  0.07674020     0.06910
N689        N  0.47706840  0.85964555  0.08712365    -0.46550
C690        C  0.54481075  0.96620839  0.86228186     0.42540
N691        N  0.51941787  0.00905916  0.84583330     0.01430
C692        C  0.43492104  0.03513318  0.70450433    -0.06440
H693        H  0.55560853  0.95645833  0.69919167     0.06930
C694        C  0.60289090  0.07256975  0.75484697    -0.06790
Co695      Co  0.48078832  0.99699311  0.78548334     0.74180
N696        N  0.52474468  0.98336735  0.73206864    -0.25970
Co697      Co  0.51444906  0.03521286  0.72222422     0.74070
C698        C  0.61749130  0.04901242  0.73487298     0.42650
N699        N  0.56192220  0.08565722  0.81911202     0.01050
N700        N  0.56563079  0.04527089  0.73109675     0.01160
N701        N  0.42231331  0.00299450  0.74482925    -0.46820
H702        H  0.52752744  0.93847052  0.81895036     0.06910
N703        N  0.51031632  0.97252181  0.75726028     0.01440
N704        N  0.50473706  0.08715485  0.71453340     0.01180
C705        C  0.50041308  0.13815032  0.70310663     0.42790
N706        N  0.55055096  0.06939821  0.84265761    -0.25430
C707        C  0.41613019  0.02224929  0.81189452    -0.06350
N708        N  0.53926894  0.99751508  0.86874216    -0.46530
N709        N  0.49166776  0.10811865  0.69249226    -0.46760
C710        C  0.40669754  0.04906376  0.83172642     0.42560
N711        N  0.45306759  0.00834902  0.74552699     0.01430
N712        N  0.48878921  0.10191146  0.82552621    -0.25450
N713        N  0.51207007  0.98755972  0.82423999    -0.25940
N714        N  0.50125379  0.11522442  0.80046458     0.01070
H715        H  0.45149783  0.11762883  0.85674864     0.06960
H716        H  0.52877998  0.15129257  0.74739607     0.06990
N717        N  0.46258607  0.02622973  0.72160525    -0.25990
N718        N  0.57181448  0.06805277  0.75215750    -0.25600
N719        N  0.45765026  0.04254308  0.83450027     0.01430
C720        C  0.53368207  0.92829495  0.74171632     0.42830
C721        C  0.57406283  0.06481911  0.86491206    -0.06850
N722        N  0.51810165  0.10365219  0.73738055    -0.25600
H723        H  0.61426895  0.09010029  0.76976028     0.06980
N724        N  0.51416458  0.94189296  0.76257307    -0.46820
H725        H  0.57274046  0.05053469  0.88648811     0.06970
C726        C  0.46358759  0.14897724  0.81310961     0.42670
C727        C  0.52933084  0.96096246  0.83116330    -0.06350
Co728      Co  0.50401473  0.05559330  0.83858886     0.73820
N729        N  0.59160110  0.09382500  0.82402363    -0.46540
C730        C  0.40782972  0.01890001  0.72043551     0.42930
N731        N  0.43354693  0.05974321  0.84572787    -0.46530
Co732      Co  0.53829179  0.09272283  0.77723838     0.73890
C733        C  0.51834402  0.13386890  0.73147595    -0.06860
C734        C  0.54109605  0.95663353  0.72030126    -0.06420
N735        N  0.44833232  0.02101135  0.81389954    -0.25950
N736        N  0.59330795  0.03217549  0.72049078    -0.46710
H737        H  0.43357957  0.05108696  0.68395873     0.06940
C738        C  0.46523168  0.12154876  0.83561628    -0.06830
Cl739      Cl  0.50949783  0.04489642  0.78051232    -0.49840
C740        C  0.60172061  0.08053576  0.85177265     0.42690
H741        H  0.40120466  0.00814685  0.79654958     0.06910
N742        N  0.48693212  0.14276590  0.79213515    -0.46550
C743        C  0.50079379  0.17200260  0.91503073     0.42540
N744        N  0.52216695  0.19426651  0.95591218     0.01430
C745        C  0.45111540  0.22559436  0.09755880    -0.06440
H746        H  0.38738767  0.24898745  0.97711028     0.06930
C747        C  0.42539858  0.31293560  0.95561875    -0.06790
Co748      Co  0.48562315  0.18754221  0.01422307     0.74180
N749        N  0.42734914  0.22603912  0.00111625    -0.25970
Co750      Co  0.44525392  0.25973797  0.03189981     0.74070
C751        C  0.39168289  0.30822511  0.96895892     0.42650
N752        N  0.51241610  0.28787741  0.94393335     0.01050
N753        N  0.43100936  0.29512207  0.00271632     0.01160
N754        N  0.47772224  0.17991633  0.08520270    -0.46820
H755        H  0.46354958  0.14849763  0.94583010     0.06910
N756        N  0.44022546  0.19720983  0.99766617     0.01440
N757        N  0.46690328  0.29342685  0.05682756     0.01180
C758        C  0.49015832  0.30441616  0.10217109     0.42790
N759        N  0.53047524  0.26147397  0.94110359    -0.25430
C760        C  0.54881878  0.16168236  0.04964343    -0.06350
N761        N  0.52447242  0.19044955  0.92484569    -0.46530
N762        N  0.46386733  0.29379029  0.08791632    -0.46760
C763        C  0.58284617  0.16964426  0.04730162     0.42560
N764        N  0.47155646  0.19777922  0.05950245     0.01430
N765        N  0.56575113  0.26573562  0.00081333    -0.25450
N766        N  0.49899488  0.17831853  0.96797177    -0.25940
N767        N  0.55396560  0.29488243  0.00474398     0.01070
H768        H  0.61243762  0.24269973  0.00230216     0.06960
H769        H  0.53516042  0.31975554  0.07440234     0.06990
N770        N  0.45665014  0.22497920  0.06610388    -0.25990
N771        N  0.44852869  0.30517744  0.97961845    -0.25600
N772        N  0.55317566  0.20234295  0.01877643     0.01430
C773        C  0.39898847  0.19865260  0.96617937     0.42830
C774        C  0.53682955  0.25662048  0.91034275    -0.06850
N775        N  0.49313426  0.30585976  0.04609268    -0.25600
H776        H  0.43082751  0.32059991  0.93159627     0.06980
N777        N  0.42388210  0.17990881  0.97708420    -0.46820
H778        H  0.55087131  0.23660253  0.90151357     0.06970
C779        C  0.60587536  0.29472475  0.01511145     0.42670
C780        C  0.48477376  0.16225011  0.94404453    -0.06350
Co781      Co  0.54302586  0.23085266  0.97934112     0.73820
N782        N  0.50431637  0.30049485  0.91488555    -0.46540
C783        C  0.46586395  0.19622468  0.11029883     0.42930
N784        N  0.58229499  0.19703819  0.03046834    -0.46530
Co785      Co  0.50182290  0.30105063  0.99312723     0.73890
C786        C  0.51051143  0.31265451  0.07378418    -0.06860
C787        C  0.40371387  0.22948303  0.97945954    -0.06420
N788        N  0.53269633  0.18249217  0.03003145    -0.25950
N789        N  0.39997825  0.29915291  0.99870866    -0.46710
H790        H  0.43900377  0.24464420  0.11029184     0.06940
C791        C  0.59701443  0.26344867  0.00685728    -0.06830
Cl792      Cl  0.49420295  0.24522312  0.00461635    -0.49840
C793        C  0.51938962  0.28170498  0.89236866     0.42690
H794        H  0.53869595  0.14130762  0.06108784     0.06910
N795        N  0.57818347  0.31412083  0.01261281    -0.46550
C796        C  0.54335983  0.93906940  0.15737598     0.42540
N797        N  0.51256404  0.97545113  0.17640468     0.01430
C798        C  0.55817585  0.12431443  0.22024874    -0.06440
H799        H  0.64452620  0.03233445  0.24150136     0.06930
C800        C  0.58139393  0.97511017  0.29227944    -0.06790
Co801      Co  0.54032345  0.03826756  0.17653860     0.74180
N802        N  0.59690646  0.03625993  0.22109711    -0.25970
Co803      Co  0.56718019  0.05853617  0.25364786     0.74070
C804        C  0.61531042  0.98722953  0.29163163     0.42650
N805        N  0.50393520  0.96103569  0.26913902     0.01050
N806        N  0.57856657  0.02560550  0.28752017     0.01160
N807        N  0.54164071  0.10969204  0.17086834    -0.46820
H808        H  0.57812783  0.97493901  0.13840780     0.06910
N809        N  0.58484938  0.02677311  0.19344676     0.01440
N810        N  0.53610281  0.07776108  0.28461196     0.01180
C811        C  0.50480412  0.11982596  0.29040849     0.42790
N812        N  0.49262805  0.95630076  0.23970030    -0.25430
C813        C  0.47765419  0.07288901  0.14772889    -0.06350
N814        N  0.51600917  0.94460883  0.17272141    -0.46530
N815        N  0.53473143  0.10896292  0.28611635    -0.46760
C816        C  0.44365445  0.07084165  0.15568109     0.42560
N817        N  0.54678924  0.08472889  0.18982338     0.01430
N818        N  0.44979746  0.01101172  0.23877961    -0.25450
N819        N  0.53567468  0.99114452  0.16388874    -0.25940
N820        N  0.45559198  0.01616510  0.26940765     0.01070
H821        H  0.40824869  0.00443940  0.20864993     0.06960
H822        H  0.46136327  0.08649627  0.29457116     0.06990
N823        N  0.55614680  0.09262411  0.21902884    -0.25990
N824        N  0.56002911  0.00130791  0.29084717    -0.25600
N825        N  0.47137816  0.03336192  0.17979794     0.01430
C826        C  0.63126715  0.00425439  0.19600245     0.42830
C827        C  0.48934592  0.92505175  0.23496378    -0.06850
N828        N  0.50902317  0.06374524  0.29032098    -0.25600
H829        H  0.57452491  0.95052560  0.29127976     0.06980
N830        N  0.60439204  0.00785077  0.17811493    -0.46820
H831        H  0.47980210  0.91458511  0.21328152     0.06970
C832        C  0.40350662  0.01667750  0.26107737     0.42670
C833        C  0.55585168  0.96997686  0.14962804    -0.06350
Co834      Co  0.48174372  0.99423961  0.20823298     0.73820
N835        N  0.51000302  0.93330130  0.28487655    -0.46540
C836        C  0.54758809  0.13569273  0.18858805     0.42930
N837        N  0.44244775  0.04630517  0.17625951    -0.46530
Co838      Co  0.50708081  0.01054593  0.28290094     0.73890
C839        C  0.48700255  0.08898468  0.29338735    -0.06860
C840        C  0.62755851  0.02575846  0.22322583    -0.06420
N841        N  0.49289968  0.04910446  0.16459608    -0.25950
N842        N  0.60933966  0.01858925  0.28993236    -0.46710
H843        H  0.56654381  0.13771247  0.24060356     0.06940
C844        C  0.41878844  0.01116553  0.23158541    -0.06830
Cl845      Cl  0.52386929  0.02555939  0.23076117    -0.49840
C846        C  0.50123019  0.90943094  0.26436913     0.42690
H847        H  0.48894956  0.09088574  0.13374037     0.06910
N848        N  0.42748843  0.01883233  0.28465439    -0.46550
C849        C  0.33030214  0.04001798  0.09626606     0.42540
N850        N  0.31592471  0.04378093  0.04672569     0.01430
C851        C  0.20392690  0.09406635  0.95462688    -0.06440
H852        H  0.20798401  0.96566509  0.05283673     0.06930
C853        C  0.27273370  0.93248513  0.96797013    -0.06790
Co854      Co  0.25074374  0.07096774  0.03408251     0.74180
N855        N  0.21471856  0.01383845  0.03424173    -0.25970
Co856      Co  0.21686391  0.01775830  0.98037910     0.74070
C857        C  0.24831441  0.91674563  0.98512149     0.42650
N858        N  0.32818949  0.98641307  0.97264469     0.01050
N859        N  0.23556615  0.96783108  0.98029879     0.01160
N860        N  0.21141833  0.11862205  0.00082502    -0.46820
H861        H  0.28118876  0.06123276  0.11212547     0.06910
N862        N  0.22289014  0.03892855  0.05085089     0.01440
N863        N  0.22281794  0.01967276  0.92801946     0.01180
C864        C  0.22400929  0.01972859  0.87565652     0.42790
N865        N  0.34007930  0.00258842  0.99650842    -0.25430
C866        C  0.27392940  0.13531320  0.01772573    -0.06350
N867        N  0.33953680  0.03488131  0.06619221    -0.46530
N868        N  0.20451833  0.02643663  0.90136543    -0.46760
C869        C  0.29750497  0.14627965  0.99671833     0.42560
N870        N  0.21341084  0.08742871  0.00489311     0.01430
N871        N  0.32638773  0.05704113  0.94976315    -0.25450
N872        N  0.29009569  0.05379864  0.06170081    -0.25940
N873        N  0.31156664  0.03750490  0.93048884     0.01070
H874        H  0.34627322  0.10295728  0.94177125     0.06960
H875        H  0.27557957  0.00146615  0.87570450     0.06990
N876        N  0.20711914  0.07100688  0.97869485    -0.25990
N877        N  0.26354015  0.96317415  0.96657027    -0.25600
N878        N  0.30491681  0.09635767  0.00178684     0.01430
C879        C  0.21792669  0.00599513  0.09017890     0.42830
C880        C  0.35916824  0.98188286  0.01431676    -0.06850
N881        N  0.25167456  0.01059450  0.91950988    -0.25600
H882        H  0.29455805  0.92225339  0.95846588     0.06980
N883        N  0.22389387  0.03564816  0.08203524    -0.46820
H884        H  0.37155811  0.98722642  0.03669877     0.06970
C885        C  0.32188641  0.07661154  0.89976211     0.42670
C886        C  0.29694809  0.05280621  0.09354892    -0.06350
Co887      Co  0.32319306  0.05018846  0.99908898     0.73820
N888        N  0.33899250  0.95701700  0.97128898    -0.46540
C889        C  0.20708243  0.12681254  0.96986608     0.42930
N890        N  0.31735319  0.12158715  0.98923534    -0.46530
Co891      Co  0.28877948  0.99958660  0.94755014     0.73890
C892        C  0.25415667  0.00880728  0.88822786    -0.06860
C893        C  0.21180626  0.99058349  0.05760996    -0.06420
N894        N  0.27881572  0.10390553  0.01721600    -0.25950
N895        N  0.22565758  0.94020405  0.99259560    -0.46710
H896        H  0.20304236  0.08890621  0.92919740     0.06940
C897        C  0.33511851  0.08216430  0.93225309    -0.06830
Cl898      Cl  0.26956315  0.03412448  0.99058496    -0.49840
C899        C  0.35781219  0.95108236  0.99699448     0.42690
H900        H  0.25566218  0.14825766  0.03056251     0.06910
N901        N  0.30840690  0.04815681  0.90090788    -0.46550
C902        C  0.80344334  0.91865878  0.01533666     0.42540
N903        N  0.79415809  0.95935097  0.98424300     0.01430
C904        C  0.75652259  0.11977145  0.01994451    -0.06440
H905        H  0.72983667  0.03903566  0.10899616     0.06930
C906        C  0.65558518  0.00050949  0.05003534    -0.06790
Co907      Co  0.79845675  0.02717383  0.00808935     0.74180
N908        N  0.75810030  0.03906704  0.06639727    -0.25970
Co909      Co  0.72757554  0.05992590  0.03060283     0.74070
C910        C  0.65914422  0.01899165  0.08020922     0.42650
N911        N  0.69943850  0.96283392  0.98742098     0.01050
N912        N  0.69131972  0.03532172  0.04554577     0.01160
N913        N  0.80501747  0.10692711  0.00042501    -0.46820
H914        H  0.81429223  0.95296628  0.05779023     0.06910
N915        N  0.78556706  0.02459066  0.05894331     0.01440
N916        N  0.69896212  0.07687789  0.99275683     0.01180
C917        C  0.66676157  0.10919171  0.96612178     0.42790
N918        N  0.72497708  0.94819358  0.97564488    -0.25430
C919        C  0.81281946  0.05003886  0.93138661    -0.06350
N920        N  0.79589195  0.92844442  0.98576240    -0.46530
N921        N  0.69268374  0.10706975  0.98624117    -0.46760
C922        C  0.80640051  0.03488264  0.89889019     0.42560
N923        N  0.78953327  0.08012186  0.00773937     0.01430
N924        N  0.72560016  0.99323477  0.92361823    -0.25450
N925        N  0.80329557  0.97423234  0.01028337    -0.25940
N926        N  0.69793006  0.00474459  0.93340493     0.01070
H927        H  0.74582941  0.98738094  0.87662232     0.06960
H928        H  0.64375690  0.06675733  0.93979048     0.06990
N929        N  0.76119742  0.08850062  0.01817494    -0.25990
N930        N  0.67635729  0.01344549  0.02961440    -0.25600
N931        N  0.79232269  0.00489124  0.93789856     0.01430
C932        C  0.77633471  0.00905986  0.10855343     0.42830
C933        C  0.72187404  0.91657213  0.97984794    -0.06850
N934        N  0.68109421  0.05793423  0.97555522    -0.25600
H935        H  0.63944590  0.98164381  0.04433787     0.06980
N936        N  0.79679660  0.00553729  0.08332710    -0.46820
H937        H  0.73761506  0.89802003  0.97082938     0.06970
C938        C  0.69571835  0.00976233  0.88245732     0.42670
C939        C  0.80885417  0.94986427  0.03251716    -0.06350
Co940      Co  0.75966337  0.97625610  0.95521141     0.73820
N941        N  0.68003076  0.94377261  0.00090235    -0.46540
C942        C  0.78464834  0.13275729  0.00811604     0.42930
N943        N  0.79422284  0.00727972  0.90668175    -0.46530
Co944      Co  0.68774577  0.00931108  0.98126281     0.73890
C945        C  0.66123134  0.07595233  0.95664677    -0.06860
C946        C  0.75143527  0.03195467  0.09693622    -0.06420
N947        N  0.80418173  0.02865061  0.95461107    -0.25950
N948        N  0.68121494  0.03992478  0.07436925    -0.46710
H949        H  0.73496424  0.13205257  0.02807449     0.06940
C950        C  0.72626244  0.99493957  0.89160829    -0.06830
Cl951      Cl  0.74363435  0.01833632  0.99388122    -0.49840
C952        C  0.69247115  0.91416392  0.99807986     0.42690
H953        H  0.82089303  0.07380908  0.93613821     0.06910
N954        N  0.67908595  0.01481303  0.90938284    -0.46550
C955        C  0.88115940  0.82994574  0.46238198     0.42540
N956        N  0.93187999  0.82679127  0.45932139     0.01430
C957        C  0.04021834  0.72089630  0.41973871    -0.06440
H958        H  0.95383567  0.72647798  0.55031722     0.06930
C959        C  0.02585064  0.79205170  0.57910629    -0.06790
Co960      Co  0.95709733  0.76348994  0.43855766     0.74180
N961        N  0.96633651  0.72924032  0.49978739    -0.25970
Co962      Co  0.01800630  0.73736815  0.49449169     0.74070
C963        C  0.01798878  0.76332444  0.59581181     0.42650
N964        N  0.99966057  0.84417592  0.52234903     0.01050
N965        N  0.01922852  0.75399689  0.54428362     0.01160
N966        N  0.99262845  0.72723902  0.39477851    -0.46820
H967        H  0.87626445  0.77817228  0.44687578     0.06910
N968        N  0.94687777  0.73397255  0.47457875     0.01440
N969        N  0.06776235  0.75125722  0.49032165     0.01180
C970        C  0.11891560  0.75846637  0.48365608     0.42790
N971        N  0.97867156  0.85648725  0.50126281    -0.25430
C972        C  0.96599770  0.79380203  0.36921179    -0.06350
N973        N  0.90780149  0.84647524  0.46555579    -0.46530
N974        N  0.09530739  0.73636250  0.48150277    -0.46760
C975        C  0.97296140  0.82630648  0.35908331     0.42560
N976        N  0.99036274  0.73096990  0.42572780     0.01430
N977        N  0.02438611  0.85144748  0.45042262    -0.25450
N978        N  0.92301363  0.79777241  0.45251185    -0.25940
N979        N  0.04617051  0.83906934  0.47065845     0.01070
H980        H  0.02768864  0.87715649  0.40553582     0.06960
H981        H  0.11429048  0.81006522  0.50027055     0.06990
N982        N  0.01738658  0.72610916  0.44253650    -0.25990
N983        N  0.02591527  0.78421332  0.54808106    -0.25600
N984        N  0.97605669  0.82390262  0.40991610     0.01430
C985        C  0.91215750  0.72905981  0.51182365     0.42830
C986        C  0.96131197  0.87980423  0.51514995    -0.06850
N987        N  0.07269212  0.78110532  0.49797315    -0.25600
H988        H  0.03120222  0.81516100  0.58889437     0.06980
N989        N  0.91646069  0.73269856  0.48057394    -0.46820
H990        H  0.94314791  0.89523925  0.50337368     0.06970
C991        C  0.07314200  0.85860790  0.43312927     0.42670
C992        C  0.89093301  0.79750754  0.45384383    -0.06350
Co993      Co  0.97762158  0.84041020  0.45527876     0.73820
N994        N  0.99735972  0.85749255  0.55064930    -0.46540
C995        C  0.02297803  0.72148360  0.38735546     0.42930
N996        N  0.97883460  0.84311846  0.38553894    -0.46530
Co997      Co  0.03608146  0.81264530  0.51004409     0.73890
C998        C  0.10369224  0.78739181  0.49535404    -0.06860
C999        C  0.94618812  0.72673059  0.52527821    -0.06420
N1000       N  0.96822520  0.79489621  0.40168295    -0.25950
N1001       N  0.01433126  0.74012955  0.57284243    -0.46710
H1002       H  0.06583878  0.71962066  0.42453521     0.06940
C1003       C  0.03915810  0.86565342  0.42636123    -0.06830
Cl1004     Cl  0.99730830  0.78821751  0.47484721    -0.49840
C1005       C  0.97376885  0.88020619  0.54811989     0.42690
H1006       H  0.95829517  0.77387350  0.35496796     0.06910
N1007       N  0.07536065  0.84240692  0.46091400    -0.46550
C1008       C  0.85697087  0.92293560  0.53810190     0.42540
N1009       N  0.85319360  0.97408216  0.53215931     0.01430
C1010       C  0.71581247  0.05774262  0.57449402    -0.06440
H1011       H  0.71363458  0.94542042  0.48526244     0.06930
C1012       C  0.76719054  0.01756896  0.40589868    -0.06790
Co1013     Co  0.79324627  0.99880312  0.56021501     0.74180
N1014       N  0.74026587  0.97688906  0.51691656    -0.25970
Co1015     Co  0.73743768  0.02742202  0.50215308     0.74070
C1016       C  0.73987814  0.99973187  0.39874547     0.42650
N1017       N  0.83301209  0.01212853  0.44582542     0.01050
N1018       N  0.74072156  0.01392295  0.45008739     0.01160
N1019       N  0.75428704  0.03137683  0.60324195    -0.46820
H1020       H  0.81453599  0.92281177  0.57096209     0.06910
N1021       N  0.75989114  0.96936012  0.54167875     0.01440
N1022       N  0.74363481  0.07801844  0.48964728     0.01180
C1023       C  0.74601279  0.13048808  0.48761039     0.42790
N1024       N  0.85461483  0.00048525  0.46694042    -0.25430
C1025       C  0.82124477  0.05392565  0.59844028    -0.06350
N1026       N  0.87005643  0.94824613  0.52383786    -0.46530
N1027       N  0.73114964  0.10541386  0.50181446    -0.46760
C1028       C  0.84514898  0.07740834  0.59353850     0.42560
N1029       N  0.75734911  0.02703722  0.57247929     0.01430
N1030       N  0.85769657  0.06557650  0.49435598    -0.25450
N1031       N  0.82960000  0.96697815  0.55053960    -0.25940
N1032       N  0.83737032  0.07501191  0.47147917     0.01070
H1033       H  0.89257331  0.09110584  0.52212227     0.06960
H1034       H  0.78678351  0.12735149  0.45269837     0.06990
N1035       N  0.73482185  0.04048063  0.55365809    -0.25990
N1036       N  0.76626323  0.02444397  0.43665084    -0.25600
N1037       N  0.85002621  0.04003222  0.55840530     0.01430
C1038       C  0.74297630  0.92327107  0.52912104     0.42830
C1039       C  0.86758106  0.97323166  0.45491247    -0.06850
N1040       N  0.76720479  0.08413101  0.47012396    -0.25600
H1041       H  0.78550485  0.02500243  0.38987068     0.06980
N1042       N  0.76107576  0.93913443  0.54975313    -0.46820
H1043       H  0.88496916  0.95737975  0.46711036     0.06970
C1044       C  0.86122219  0.11749565  0.48308785     0.42670
C1045       C  0.83147901  0.93580835  0.55739369    -0.06350
Co1046     Co  0.85561789  0.01985441  0.51316641     0.73820
N1047       N  0.82957396  0.99369735  0.42069664    -0.46540
C1048       C  0.72978593  0.05116979  0.60806110     0.42930
N1049       N  0.86288900  0.06663263  0.56885671    -0.46530
Co1050     Co  0.80090225  0.04910987  0.45593324     0.73890
C1051       C  0.76909871  0.11570266  0.46640055    -0.06860
C1052       C  0.72897326  0.94843706  0.50634470    -0.06420
N1053       N  0.82545339  0.03213999  0.57556186    -0.25950
N1054       N  0.72312108  0.99862987  0.42730441    -0.46710
H1055       H  0.69437294  0.07177632  0.56762283     0.06940
C1056       C  0.87467279  0.09082604  0.50292625    -0.06830
Cl1057     Cl  0.79645692  0.02374440  0.50781196    -0.49840
C1058       C  0.84958762  0.96813247  0.42459181     0.42690
H1059       H  0.80270247  0.05494247  0.61574640     0.06910
N1060       N  0.83967463  0.10496574  0.46321284    -0.46550
C1061       C  0.18721759  0.91943254  0.44220491     0.42540
N1062       N  0.20705297  0.95235762  0.47581661     0.01430
C1063       C  0.20609004  0.11487511  0.45086377    -0.06440
H1064       H  0.24645314  0.04588542  0.35379369     0.06930
C1065       C  0.31383945  0.99050079  0.40977085    -0.06790
Co1066     Co  0.18985604  0.01884122  0.45683576     0.74180
N1067       N  0.22828302  0.03587646  0.40045590    -0.25970
Co1068     Co  0.25513994  0.05977924  0.43291014     0.74070
C1069       C  0.30790390  0.00749929  0.37789098     0.42650
N1070       N  0.29813025  0.95906562  0.48436201     0.01050
N1071       N  0.29559579  0.03773937  0.41791834     0.01160
N1072       N  0.16467301  0.08499220  0.46508079    -0.46820
H1073       H  0.16338577  0.95975240  0.41214078     0.06910
N1074       N  0.20491694  0.01864378  0.41011764     0.01440
N1075       N  0.28176645  0.08078783  0.46445481     0.01180
C1076       C  0.29076916  0.12169805  0.49333769     0.42790
N1077       N  0.27201815  0.94823086  0.49667934    -0.25430
C1078       C  0.16045857  0.03779462  0.52515822    -0.06350
N1079       N  0.20464213  0.92160139  0.46987057    -0.46530
N1080       N  0.27833940  0.11174485  0.46598547    -0.46760
C1081       C  0.16865740  0.02703511  0.55841932     0.42560
N1082       N  0.18958910  0.06710528  0.45715554     0.01430
N1083       N  0.26301891  0.99445882  0.54366228    -0.25450
N1084       N  0.19135365  0.97036298  0.45456432    -0.25940
N1085       N  0.28848948  0.01062575  0.53682665     0.01070
H1086       H  0.24073446  0.98100081  0.58689105     0.06960
H1087       H  0.31402045  0.08787257  0.53347626     0.06990
N1088       N  0.21409004  0.08359021  0.44845646    -0.25990
N1089       N  0.30673570  0.01216027  0.43353484    -0.25600
N1090       N  0.19554941  0.99900530  0.52519344     0.01430
C1091       C  0.20610300  0.01080038  0.35902336     0.42830
C1092       C  0.27162615  0.91698056  0.49647453    -0.06850
N1093       N  0.29737423  0.06611560  0.48857120    -0.25600
H1094       H  0.32016231  0.96550375  0.41377561     0.06980
N1095       N  0.19198840  0.00269070  0.38650365    -0.46820
H1096       H  0.25247377  0.90287851  0.50515505     0.06970
C1097       C  0.28311188  0.01308493  0.58851304     0.42670
C1098       C  0.17924232  0.95187632  0.43185352    -0.06350
Co1099     Co  0.23433761  0.97346322  0.51054268     0.73820
N1100       N  0.31594497  0.93408866  0.47313434    -0.46540
C1101       C  0.17326253  0.11512879  0.46167661     0.42930
N1102       N  0.19012547  0.00294892  0.55575239    -0.46530
Co1103     Co  0.30060018  0.01205789  0.48614005     0.73890
C1104       C  0.30341098  0.09080649  0.50956878    -0.06860
C1105       C  0.23066294  0.03288679  0.36870681    -0.06420
N1106       N  0.17865588  0.01872360  0.50613290    -0.25950
N1107       N  0.29800440  0.03656484  0.38668125    -0.46710
H1108       H  0.22083658  0.13459568  0.44492687     0.06940
C1109       C  0.25886190  0.99375214  0.57500094    -0.06830
Cl1110     Cl  0.24522177  0.01626408  0.47216919    -0.49840
C1111       C  0.29954335  0.90689276  0.48040030     0.42690
H1112       H  0.14546599  0.05808830  0.51721636     0.06910
N1113       N  0.30145783  0.02303593  0.56372219    -0.46550
C1114       C  0.87240971  0.22636103  0.52494408     0.42540
N1115       N  0.91385958  0.24072705  0.49979688     0.01430
C1116       C  0.07361828  0.20994665  0.53667429    -0.06440
H1117       H  0.00159361  0.26631681  0.62293910     0.06930
C1118       C  0.97473311  0.33716443  0.57919228    -0.06790
Co1119     Co  0.97517150  0.20765478  0.52210136     0.74180
N1120       N  0.99500654  0.24332707  0.57904427    -0.25970
Co1121     Co  0.02769479  0.26420394  0.55117338     0.74070
C1122       C  0.99333890  0.32842376  0.61023035     0.42650
N1123       N  0.93730799  0.32297195  0.50111910     0.01050
N1124       N  0.01564456  0.30823054  0.56801017     0.01160
N1125       N  0.04142260  0.17324763  0.51498183    -0.46820
H1126       H  0.90406261  0.19389458  0.55830429     0.06910
N1127       N  0.97545730  0.22139967  0.56920538     0.01440
N1128       N  0.05570217  0.28606220  0.52109311     0.01180
C1129       C  0.09864220  0.29638462  0.49653041     0.42790
N1130       N  0.92400780  0.30510067  0.47932909    -0.25430
C1131       C  0.99003434  0.17717782  0.45386038    -0.06350
N1132       N  0.88264921  0.24570987  0.50182720    -0.46530
N1133       N  0.08656649  0.27910067  0.51973405    -0.46760
C1134       C  0.98074882  0.18786589  0.42097849     0.42560
N1135       N  0.02461069  0.19857847  0.52493949     0.01430
N1136       N  0.96998106  0.28559358  0.43948421    -0.25450
N1137       N  0.92584685  0.21923653  0.52020840    -0.25940
N1138       N  0.98988771  0.30760268  0.44876168     0.01070
H1139       H  0.95494832  0.26526062  0.39503711     0.06960
H1140       H  0.06948468  0.33326941  0.46360628     0.06990
N1141       N  0.04326613  0.22049119  0.53659689    -0.25990
N1142       N  0.99174764  0.32446100  0.55400909    -0.25600
N1143       N  0.95953701  0.21965577  0.45432284     0.01430
C1144       C  0.96089237  0.23273362  0.61695921     0.42830
C1145       C  0.89283838  0.30996333  0.47657493    -0.06850
N1146       N  0.04412675  0.30827062  0.50083544    -0.25600
H1147       H  0.95188987  0.35017293  0.57667069     0.06980
N1148       N  0.95480944  0.21402209  0.59129969    -0.46820
H1149       H  0.87739911  0.29433604  0.46312967     0.06970
C1150       C  0.99405250  0.30103500  0.39693916     0.42670
C1151       C  0.90171654  0.20992340  0.53813541    -0.06350
Co1152     Co  0.94206851  0.26258026  0.46827163     0.73820
N1153       N  0.91371925  0.33604624  0.51894652    -0.46540
C1154       C  0.07258799  0.17895527  0.52213327     0.42930
N1155       N  0.96190588  0.21374388  0.42383437    -0.46530
Co1156     Co  0.99076473  0.31849634  0.50120337     0.73890
C1157       C  0.07018413  0.31639680  0.48338959    -0.06860
C1158       C  0.98739960  0.25169513  0.60818992    -0.06420
N1159       N  0.97502719  0.19859791  0.47302556    -0.25950
N1160       N  0.01883696  0.31231118  0.59911084    -0.46710
H1161       H  0.09402757  0.22336222  0.54434373     0.06940
C1162       C  0.97007875  0.28116058  0.40832177    -0.06830
Cl1163     Cl  0.98464981  0.26326486  0.51001453    -0.49840
C1164       C  0.88473124  0.32858252  0.50388440     0.42690
H1165       H  0.00637916  0.15784047  0.46168072     0.06910
N1166       N  0.00646356  0.31702960  0.42323285    -0.46550
C1167       C  0.01647440  0.93205723  0.35032921     0.42540
N1168       N  0.03549765  0.97367220  0.32907808     0.01430
C1169       C  0.98199995  0.12361222  0.30107485    -0.06440
H1170       H  0.88869002  0.02653025  0.29893242     0.06930
C1171       C  0.93210480  0.98827905  0.21580480    -0.06790
Co1172     Co  0.00341871  0.03492932  0.34157601     0.74180
N1173       N  0.93704646  0.03716110  0.31398851    -0.25970
Co1174     Co  0.95612089  0.06047700  0.27515305     0.74070
C1175       C  0.90000484  0.00002866  0.22790464     0.42650
N1176       N  0.01696714  0.96580485  0.23587596     0.01050
N1177       N  0.93749470  0.02958205  0.24466427     0.01160
N1178       N  0.01356343  0.10567818  0.34252415    -0.46820
H1179       H  0.98062513  0.96340955  0.37881088     0.06910
N1180       N  0.95510940  0.02768915  0.33899141     0.01440
N1181       N  0.97482083  0.08105289  0.23604694     0.01180
C1182       C  0.99546077  0.12289725  0.21640663     0.42790
N1183       N  0.03650544  0.96048129  0.26105928    -0.25430
C1184       C  0.07122897  0.06319379  0.35733639    -0.06350
N1185       N  0.03877389  0.94252520  0.33119124    -0.46530
N1186       N  0.97129586  0.11204085  0.23276149    -0.46760
C1187       C  0.09903831  0.06647273  0.33632351     0.42560
N1188       N  0.99566803  0.08284162  0.33094467     0.01430
N1189       N  0.07285753  0.01489107  0.25338557    -0.25450
N1190       N  0.01320110  0.98594973  0.34726211    -0.25940
N1191       N  0.05972086  0.02096516  0.22501235     0.01070
H1192       H  0.12010222  0.00675187  0.27330205     0.06960
H1193       H  0.03700039  0.09112497  0.19559526     0.06990
N1194       N  0.97780687  0.09247636  0.30582414    -0.25990
N1195       N  0.95425755  0.00933737  0.22689853    -0.25600
N1196       N  0.06569950  0.03474169  0.31550790     0.01430
C1197       C  0.91103075  0.00450208  0.34496175     0.42830
C1198       C  0.04399413  0.92954480  0.26396365    -0.06850
N1199       N  0.99870891  0.06781974  0.22004355    -0.25600
H1200       H  0.93741992  0.96750526  0.20130439     0.06980
N1201       N  0.94047909  0.00814286  0.35799535    -0.46820
H1202       H  0.06044335  0.91864605  0.28169048     0.06970
C1203       C  0.11217387  0.02119033  0.22157438     0.42670
C1204       C  0.99999765  0.96135193  0.36244849    -0.06350
Co1205     Co  0.05252306  0.99623964  0.29019277     0.73820
N1206       N  0.00932111  0.93828573  0.22175493    -0.46540
C1207       C  0.00720664  0.13163959  0.32387493     0.42930
N1208       N  0.09077018  0.05124601  0.30941895    -0.46530
Co1209     Co  0.00691570  0.01583162  0.22448662     0.73890
C1210       C  0.01446024  0.09302867  0.20776729    -0.06860
C1211       C  0.90817824  0.02450630  0.31640479    -0.06420
N1212       N  0.05175095  0.04333718  0.34170749    -0.25950
N1213       N  0.90657437  0.02564637  0.24473094    -0.46710
H1214       H  0.97060686  0.13870887  0.28276520     0.06940
C1215       C  0.10435698  0.01456353  0.25342852    -0.06830
Cl1216     Cl  0.00429067  0.02628236  0.28241325    -0.49840
C1217       C  0.02590398  0.91453236  0.23884718     0.42690
H1218       H  0.06471980  0.07731587  0.37795678     0.06910
N1219       N  0.08340756  0.02425094  0.20381712    -0.46550
C1220       C  0.12689461  0.06388553  0.66984950     0.42540
N1221       N  0.08008969  0.04957443  0.68017809     0.01430
C1222       C  0.98139886  0.09860677  0.79003597    -0.06440
H1223       H  0.09197510  0.97837934  0.79143040     0.06930
C1224       C  0.01430035  0.93077567  0.74074981    -0.06790
Co1225     Co  0.05827689  0.07747991  0.74170457     0.74180
N1226       N  0.06706077  0.02492695  0.78522141    -0.25970
Co1227     Co  0.01354370  0.02281731  0.78107329     0.74070
C1228       C  0.02611045  0.91919864  0.77102841     0.42650
N1229       N  0.02624610  0.97509358  0.68008200     0.01050
N1230       N  0.01930447  0.97095221  0.77339971     0.01160
N1231       N  0.02553083  0.12371426  0.77909262    -0.46820
H1232       H  0.13329849  0.08856903  0.71864562     0.06910
N1233       N  0.07958303  0.05167842  0.77602312     0.01440
N1234       N  0.96260771  0.01974801  0.76941342     0.01180
C1235       C  0.91029138  0.02116417  0.76393597     0.42790
N1236       N  0.04052684  0.99553278  0.66195809    -0.25430
C1237       C  0.01938245  0.13090411  0.71023715    -0.06350
N1238       N  0.10139266  0.04924042  0.65764571    -0.46530
N1239       N  0.93556825  0.03118970  0.78281594    -0.46760
C1240       C  0.99804872  0.13415569  0.68309003     0.42560
N1241       N  0.02957850  0.09276287  0.77624922     0.01430
N1242       N  0.98596067  0.03698145  0.65886128    -0.25450
N1243       N  0.09007941  0.06367202  0.70667853    -0.25940
N1244       N  0.96887609  0.01838148  0.67622531     0.01070
H1245       H  0.97470218  0.07312633  0.62380539     0.06960
H1246       H  0.91264191  0.99220121  0.71765897     0.06990
N1247       N  0.00554200  0.07582773  0.78481413    -0.25990
N1248       N  0.01074407  0.96186777  0.74438031    -0.25600
N1249       N  0.02271647  0.08976617  0.67997676     0.01430
C1250       C  0.12283713  0.02271156  0.78190089     0.42830
C1251       C  0.05109426  0.98049410  0.63592870    -0.06850
N1252       N  0.95595540  0.00455455  0.74255321    -0.25600
H1253       H  0.00712146  0.91752689  0.71967513     0.06980
N1254       N  0.11062950  0.05161062  0.77562445    -0.46820
H1255       H  0.05928336  0.99275275  0.61499427     0.06970
C1256       C  0.93484960  0.04838368  0.65052038     0.42670
C1257       C  0.12002750  0.07342920  0.70252526    -0.06350
Co1258     Co  0.03290123  0.04301829  0.66947459     0.73820
N1259       N  0.02768828  0.94616347  0.66835256    -0.46540
C1260       C  0.99534986  0.13138533  0.78583669     0.42930
N1261       N  0.00185002  0.10879601  0.66407754    -0.46530
Co1262     Co  0.99043850  0.98982107  0.71080519     0.73890
C1263       C  0.92436202  0.00301337  0.73809580    -0.06860
C1264       C  0.09326490  0.00391465  0.78820854    -0.06420
N1265       N  0.03277220  0.10222553  0.70728151    -0.25950
N1266       N  0.02839192  0.94509303  0.79131867    -0.46710
H1267       H  0.95695466  0.09336328  0.79511518     0.06940
C1268       C  0.96673945  0.05480353  0.63968783    -0.06830
Cl1269     Cl  0.02376898  0.03291956  0.72608288    -0.49840
C1270       C  0.04005508  0.94778277  0.63895939     0.42690
H1271       H  0.02404790  0.14804027  0.72865736     0.06910
N1272       N  0.93783995  0.02474885  0.67239473    -0.46550
C1273       C  0.01244409  0.25162199  0.26826016     0.00650
C1274       C  0.00583137  0.27493635  0.24483249     0.00650
C1275       C  0.74597593  0.96721728  0.23803693     0.00650
C1276       C  0.76819664  0.97532935  0.26275882     0.00650
C1277       C  0.02806132  0.75710964  0.23107609     0.00650
C1278       C  0.03145732  0.77653962  0.25769124     0.00650
C1279       C  0.27021257  0.99438131  0.22378355     0.00650
C1280       C  0.24806348  0.99557456  0.24824458     0.00650
C1281       C  0.25726089  0.27651968  0.49439050     0.00650
C1282       C  0.23457623  0.25291207  0.49622753     0.00650
C1283       C  0.73451571  0.28877030  0.51963950     0.00650
C1284       C  0.76155688  0.26837068  0.51768860     0.00650
C1285       C  0.28093103  0.75217753  0.46435926     0.00650
C1286       C  0.25848671  0.77697462  0.46987094     0.00650
C1287       C  0.26977382  0.02095378  0.74676825     0.00650
C1288       C  0.24765144  0.01692561  0.72180796     0.00650
C1289       C  0.23597662  0.28398261  0.94952819     0.00650
C1290       C  0.25860828  0.25870548  0.94639548     0.00650
C1291       C  0.27498530  0.78012979  0.01524731     0.00650
C1292       C  0.24830349  0.76145064  0.01126026     0.00650
C1293       C  0.51483064  0.74809198  0.26459602     0.00650
C1294       C  0.50894444  0.77149761  0.24118016     0.00650
C1295       C  0.49269845  0.27444238  0.25521802     0.00650
C1296       C  0.49407165  0.25014096  0.23316132     0.00650
C1297       C  0.51035933  0.28889056  0.73213929     0.00650
C1298       C  0.50384769  0.26320789  0.75199943     0.00650
C1299       C  0.97834875  0.28916047  0.76130800     0.00650
C1300       C  0.98003292  0.26607930  0.73739888     0.00650
C1301       C  0.76597484  0.29272351  0.00837202     0.00650
C1302       C  0.74347208  0.26914922  0.00762390     0.00650
C1303       C  0.26962403  0.51258175  0.25210256     0.00650
C1304       C  0.24763853  0.51763566  0.22690660     0.00650
C1305       C  0.74199684  0.48155778  0.26740486     0.00650
C1306       C  0.76119397  0.48068138  0.24067303     0.00650
C1307       C  0.27403027  0.47699305  0.72567923     0.00650
C1308       C  0.24959207  0.47631227  0.74773913     0.00650
C1309       C  0.01976777  0.76433619  0.75854902     0.00650
C1310       C  0.02274107  0.78719663  0.73499054     0.00650
C1311       C  0.75336043  0.05426667  0.76705020     0.00650
C1312       C  0.77280710  0.05381927  0.74056028     0.00650
C1313       C  0.77482513  0.76973256  0.02185059     0.00650
C1314       C  0.74955133  0.79203697  0.01887798     0.00650
C1315       C  0.74496142  0.56545705  0.74376319     0.00650
C1316       C  0.76930441  0.56781979  0.76690545     0.00650
C1317       C  0.75960471  0.77109900  0.53893658     0.00650
C1318       C  0.78615798  0.78987056  0.54100508     0.00650
C1319       C  0.54190459  0.76751487  0.73885865     0.00650
C1320       C  0.54460954  0.78700546  0.76593618     0.00650
C1321       C  0.87467484  0.03017163  0.76342728    -0.00070
C1322       C  0.85382214  0.00763274  0.75021576    -0.11940
C1323       C  0.82177849  0.01561730  0.74090193     0.02170
C1324       C  0.80866289  0.04673012  0.74568465    -0.00150
C1325       C  0.82868877  0.06895934  0.76088246    -0.11880
C1326       C  0.86127285  0.06102421  0.76962041     0.02050
H1327       H  0.86300733  0.98351254  0.74589494     0.15030
H1328       H  0.81867832  0.09250770  0.76633653     0.15030
C1329       C  0.88006511  0.08493153  0.78507691     0.36690
C1330       C  0.80250285  0.99084610  0.72737162     0.36590
N1331       N  0.89446740  0.10440215  0.79795624    -0.43660
N1332       N  0.78725899  0.97080157  0.71661677    -0.43650
C1333       C  0.98513178  0.16595769  0.77654035    -0.00070
C1334       C  0.00820214  0.18871442  0.78410470    -0.11940
C1335       C  0.00899726  0.21889037  0.76896365     0.02170
C1336       C  0.98448265  0.22990365  0.74660931    -0.00150
C1337       C  0.96107609  0.20711288  0.73853313    -0.11880
C1338       C  0.96139147  0.17567974  0.75291757     0.02050
H1339       H  0.02751694  0.18198863  0.80116551     0.15030
H1340       H  0.94160168  0.21431369  0.72195897     0.15030
C1341       C  0.93749073  0.15370744  0.74269892     0.36690
C1342       C  0.03550338  0.23811775  0.77832876     0.36590
N1343       N  0.91834102  0.13605031  0.73434415    -0.43660
N1344       N  0.05741633  0.25201550  0.78722435    -0.43650
C1345       C  0.15571136  0.01751511  0.76793798    -0.00070
C1346       C  0.16441818  0.99101645  0.74895194    -0.11940
C1347       C  0.19279015  0.99077505  0.73060584     0.02170
C1348       C  0.21214757  0.01800787  0.72962374    -0.00150
C1349       C  0.20081689  0.04548606  0.74510964    -0.11880
C1350       C  0.17544813  0.04461840  0.76621209     0.02050
H1351       H  0.14906268  0.97075204  0.74811800     0.15030
H1352       H  0.21475720  0.06678925  0.74410337     0.15030
C1353       C  0.17045135  0.07256867  0.78610634     0.36690
C1354       C  0.20097794  0.96252753  0.71263867     0.36590
N1355       N  0.16635159  0.09494110  0.80188807    -0.43660
N1356       N  0.20665734  0.93959005  0.69818136    -0.43650
C1357       C  0.02758074  0.88377288  0.77564459    -0.00070
C1358       C  0.05533893  0.86740948  0.76482460    -0.11940
C1359       C  0.05413357  0.83702665  0.75018639     0.02170
C1360       C  0.02456816  0.82193107  0.74550057    -0.00150
C1361       C  0.99689649  0.83801276  0.75682696    -0.11880
C1362       C  0.99833103  0.86774467  0.77252246     0.02050
H1363       H  0.07776528  0.87967971  0.76518846     0.15030
H1364       H  0.97393882  0.82698569  0.75381404     0.15030
C1365       C  0.96872106  0.88289632  0.78284081     0.36690
C1366       C  0.08362433  0.82274042  0.73883987     0.36590
N1367       N  0.94499131  0.89502354  0.79112897    -0.43660
N1368       N  0.10773932  0.81212645  0.72984980    -0.43650
C1369       C  0.21225855  0.00157774  0.23939744    -0.00070
C1370       C  0.19833274  0.03241176  0.24308749    -0.11940
C1371       C  0.16724318  0.04109349  0.23054757     0.02170
C1372       C  0.14755978  0.01854621  0.21496796    -0.00150
C1373       C  0.16168370  0.98761232  0.21100484    -0.11880
C1374       C  0.19338788  0.97920525  0.22261605     0.02050
H1375       H  0.21231053  0.05031096  0.25510587     0.15030
H1376       H  0.14690268  0.96906082  0.20124782     0.15030
C1377       C  0.20544395  0.94680961  0.21854164     0.36690
C1378       C  0.15465878  0.07304705  0.23649302     0.36590
N1379       N  0.21512266  0.92080220  0.21528396    -0.43660
N1380       N  0.14443066  0.09860809  0.24121287    -0.43650
C1381       C  0.02605988  0.87889528  0.23639067    -0.00070
C1382       C  0.99776251  0.86228207  0.24021539    -0.11940
C1383       C  0.99901517  0.82925436  0.24783100     0.02170
C1384       C  0.02894868  0.81236927  0.25282231    -0.00150
C1385       C  0.05693729  0.82899334  0.24846894    -0.11880
C1386       C  0.05578958  0.86138884  0.23977277     0.02050
H1387       H  0.97478992  0.87532150  0.23883641     0.15030
H1388       H  0.07999463  0.81645231  0.25105651     0.15030
C1389       C  0.08590225  0.87639178  0.23492210     0.36690
C1390       C  0.96928188  0.81329202  0.25127497     0.36590
N1391       N  0.11001112  0.88844794  0.23116214    -0.43660
N1392       N  0.94543470  0.80047632  0.25403092    -0.43650
C1393       C  0.86689019  0.98813284  0.23190204    -0.00070
C1394       C  0.84149697  0.00940498  0.22186290    -0.11940
C1395       C  0.81026037  0.00756127  0.23362178     0.02170
C1396       C  0.80272711  0.98273263  0.25518346    -0.00150
C1397       C  0.82849794  0.96271604  0.26710058    -0.11880
C1398       C  0.86018567  0.96550647  0.25596329     0.02050
H1399       H  0.84646289  0.02868757  0.20545601     0.15030
H1400       H  0.82374112  0.94427586  0.28449695     0.15030
C1401       C  0.88585610  0.94598410  0.27060674     0.36690
C1402       C  0.78580330  0.02983614  0.22070143     0.36590
N1403       N  0.90677575  0.93067401  0.28228871    -0.43660
N1404       N  0.76625166  0.04739476  0.20979550    -0.43650
C1405       C  0.00325008  0.15689623  0.22410583    -0.00070
C1406       C  0.03222749  0.16417533  0.23989515    -0.11940
C1407       C  0.03589578  0.19356369  0.25629874     0.02170
C1408       C  0.00976165  0.21653979  0.25819015    -0.00150
C1409       C  0.98054980  0.20826377  0.24331588    -0.11880
C1410       C  0.97751407  0.18002788  0.22559750     0.02050
H1411       H  0.05177541  0.14631360  0.24052940     0.15030
H1412       H  0.96014310  0.22509514  0.24405008     0.15030
C1413       C  0.94689741  0.17495459  0.20967287     0.36690
C1414       C  0.06705015  0.19838501  0.27063812     0.36590
N1415       N  0.92232136  0.17097319  0.19700760    -0.43660
N1416       N  0.09297599  0.19974648  0.28103216    -0.43650
C1417       C  0.98222582  0.27919214  0.70267421    -0.00070
C1418       C  0.95439709  0.28974769  0.68431559    -0.11940
C1419       C  0.95608803  0.30939335  0.65607038     0.02170
C1420       C  0.98596287  0.31956167  0.64519725    -0.00150
C1421       C  0.01316187  0.31073414  0.66508035    -0.11880
C1422       C  0.01181646  0.28986475  0.69173926     0.02050
H1423       H  0.93108709  0.28364569  0.69279367     0.15030
H1424       H  0.03668679  0.31747204  0.65765319     0.15030
C1425       C  0.04179938  0.27686727  0.70528258     0.36690
C1426       C  0.92676626  0.32085909  0.64019727     0.36590
N1427       N  0.06618354  0.26613662  0.71501828    -0.43660
N1428       N  0.90313680  0.33114513  0.62829770    -0.43650
C1429       C  0.85164338  0.32138497  0.51584762    -0.00070
C1430       C  0.82710690  0.32458301  0.49167077    -0.11940
C1431       C  0.80123879  0.30396399  0.48965997     0.02170
C1432       C  0.79462226  0.28331963  0.51540988    -0.00150
C1433       C  0.81762865  0.28155999  0.54117077    -0.11880
C1434       C  0.84638549  0.29911350  0.54085292     0.02050
H1435       H  0.83095017  0.33994200  0.47116064     0.15030
H1436       H  0.81368636  0.26558889  0.56111638     0.15030
C1437       C  0.87174206  0.29057921  0.56391156     0.36690
C1438       C  0.78283891  0.30310350  0.45977142     0.36590
N1439       N  0.89234177  0.28235908  0.58163539    -0.43660
N1440       N  0.76837750  0.30224570  0.43564798    -0.43650
C1441       C  0.13441439  0.29234646  0.49180268    -0.00070
C1442       C  0.15376793  0.29343209  0.52007899    -0.11940
C1443       C  0.18472734  0.27875249  0.52269547     0.02170
C1444       C  0.19879626  0.26323590  0.49607805    -0.00150
C1445       C  0.17986362  0.26272048  0.46725365    -0.11880
C1446       C  0.14798858  0.27646122  0.46515857     0.02050
H1447       H  0.14350556  0.30391602  0.54144545     0.15030
H1448       H  0.19002123  0.25155221  0.44622603     0.15030
C1449       C  0.12913580  0.27269183  0.43594134     0.36690
C1450       C  0.20031450  0.27837939  0.55404177     0.36590
N1451       N  0.11397149  0.26964441  0.41250045    -0.43660
N1452       N  0.21149238  0.27795005  0.57983120    -0.43650
C1453       C  0.01043599  0.26204528  0.30329431    -0.00070
C1454       C  0.98032928  0.27409062  0.31272664    -0.11940
C1455       C  0.97696555  0.29364572  0.33975041     0.02170
C1456       C  0.00275893  0.29707462  0.36235453    -0.00150
C1457       C  0.03297961  0.28441480  0.35381714    -0.11880
C1458       C  0.03733163  0.26890941  0.32383169     0.02050
H1459       H  0.95952704  0.27059884  0.29708911     0.15030
H1460       H  0.05317474  0.28643552  0.37058277     0.15030
C1461       C  0.06987240  0.26305331  0.31431670     0.36690
C1462       C  0.94602312  0.30945562  0.34439597     0.36590
N1463       N  0.09660806  0.26025545  0.30781815    -0.43660
N1464       N  0.92132028  0.32226191  0.34802859    -0.43650
C1465       C  0.01755954  0.16367807  0.33177665    -0.00070
C1466       C  0.99155998  0.18535829  0.33174312    -0.11940
C1467       C  0.97802641  0.19193224  0.36113549     0.02170
C1468       C  0.99518101  0.18220987  0.38998800    -0.00150
C1469       C  0.02743195  0.17161889  0.38811095    -0.11880
C1470       C  0.03941891  0.16491665  0.35776649     0.02050
H1471       H  0.97695358  0.18920689  0.30999689     0.15030
H1472       H  0.04273638  0.16887524  0.40951120     0.15030
C1473       C  0.07275136  0.15706034  0.35314484     0.36690
C1474       C  0.94559925  0.20556624  0.36034040     0.36590
N1475       N  0.09958054  0.15179317  0.34831317    -0.43660
N1476       N  0.91967254  0.21650484  0.35948133    -0.43650
C1477       C  0.95930234  0.22040821  0.64951490    -0.00070
C1478       C  0.98919586  0.21912878  0.66582046    -0.11940
C1479       C  0.00299495  0.19037711  0.67434431     0.02170
C1480       C  0.98374910  0.16386326  0.67359645    -0.00150
C1481       C  0.95073643  0.16696380  0.66658157    -0.11880
C1482       C  0.93810789  0.19609430  0.65490091     0.02050
H1483       H  0.00578220  0.23776384  0.66394569     0.15030
H1484       H  0.93546767  0.14698048  0.66955368     0.15030
C1485       C  0.90472226  0.20014785  0.64565762     0.36690
C1486       C  0.03762644  0.18844151  0.67960302     0.36590
N1487       N  0.87784647  0.20420769  0.63869996    -0.43660
N1488       N  0.06521981  0.18675907  0.68361386    -0.43650
C1489       C  0.28391331  0.01924012  0.62387197    -0.00070
C1490       C  0.28846374  0.99193554  0.64350431    -0.11940
C1491       C  0.27546956  0.99014408  0.67423397     0.02170
C1492       C  0.25860009  0.01674088  0.68735542    -0.00150
C1493       C  0.25523700  0.04475639  0.66843749    -0.11880
C1494       C  0.26702457  0.04593353  0.63686089     0.02050
H1495       H  0.29961529  0.97054971  0.63341932     0.15030
H1496       H  0.24266853  0.06556023  0.67807235     0.15030
C1497       C  0.25943323  0.07391930  0.61733600     0.36690
C1498       C  0.27818680  0.95974092  0.69064243     0.36590
N1499       N  0.25322382  0.09632910  0.60165059    -0.43660
N1500       N  0.28077432  0.93496617  0.70306627    -0.43650
C1501       C  0.28194421  0.15640502  0.49990915    -0.00070
C1502       C  0.25954084  0.16530276  0.52323222    -0.11940
C1503       C  0.24211947  0.19535048  0.52176777     0.02170
C1504       C  0.24567386  0.21726705  0.49580444    -0.00150
C1505       C  0.26603000  0.20681703  0.47130091    -0.11880
C1506       C  0.28514794  0.17838901  0.47405617     0.02050
H1507       H  0.25475348  0.14835255  0.54210013     0.15030
H1508       H  0.26896023  0.22234798  0.45075695     0.15030
C1509       C  0.30780307  0.17183741  0.44904638     0.36690
C1510       C  0.22150364  0.20292204  0.54793587     0.36590
N1511       N  0.32597065  0.16666423  0.42905603    -0.43660
N1512       N  0.20554178  0.20786252  0.56974355    -0.43650
C1513       C  0.30276628  0.87161577  0.47363909    -0.00070
C1514       C  0.29921076  0.85266654  0.50127822    -0.11940
C1515       C  0.28084429  0.82514785  0.50099440     0.02170
C1516       C  0.27045936  0.81125290  0.47165020    -0.00150
C1517       C  0.27710209  0.82827225  0.44323068    -0.11880
C1518       C  0.29144846  0.85866848  0.44418985     0.02050
H1519       H  0.30620175  0.86250170  0.52443539     0.15030
H1520       H  0.26992462  0.81838284  0.42022901     0.15030
C1521       C  0.29235405  0.87721335  0.41499128     0.36690
C1522       C  0.27214941  0.81334172  0.53195403     0.36590
N1523       N  0.29300667  0.89224529  0.39162872    -0.43660
N1524       N  0.26626021  0.80617063  0.55793253    -0.43650
C1525       C  0.26048213  0.99793062  0.28339015    -0.00070
C1526       C  0.27947168  0.02367117  0.29188954    -0.11940
C1527       C  0.29940240  0.02315783  0.31976155     0.02170
C1528       C  0.29742733  0.99899080  0.34373310    -0.00150
C1529       C  0.27663291  0.97396421  0.33656526    -0.11880
C1530       C  0.25898663  0.97292681  0.30655623     0.02050
H1531       H  0.28034861  0.04367889  0.27539130     0.15030
H1532       H  0.27312026  0.95593333  0.35474908     0.15030
C1533       C  0.23885614  0.94634842  0.30043315     0.36690
C1534       C  0.32135463  0.04881895  0.32366030     0.36590
N1535       N  0.22261611  0.92499778  0.29576135    -0.43660
N1536       N  0.33902102  0.06927710  0.32669939    -0.43650
C1537       C  0.09995521  0.16513065  0.50536423    -0.00070
C1538       C  0.09498365  0.15437430  0.47396413    -0.11940
C1539       C  0.12060869  0.14196744  0.45686997     0.02170
C1540       C  0.15170222  0.14094846  0.47095278    -0.00150
C1541       C  0.15721208  0.15394593  0.50131929    -0.11880
C1542       C  0.13140979  0.16541085  0.51900024     0.02050
H1543       H  0.07099115  0.15460505  0.46318556     0.15030
H1544       H  0.18095659  0.15158055  0.51267760     0.15030
C1545       C  0.13745467  0.17445976  0.55198436     0.36690
C1546       C  0.11412685  0.12593571  0.42695107     0.36590
N1547       N  0.14201301  0.18173155  0.57845988    -0.43660
N1548       N  0.10993136  0.11174148  0.40359073    -0.43650
C1549       C  0.13107658  0.05375083  0.34486683    -0.00070
C1550       C  0.13196501  0.02006815  0.34910757    -0.11940
C1551       C  0.15572237  0.00144001  0.33444782     0.02170
C1552       C  0.18498688  0.01598337  0.33060778    -0.00150
C1553       C  0.18331822  0.04806850  0.32073090    -0.11880
C1554       C  0.15709873  0.06755954  0.32964517     0.02050
H1555       H  0.11121038  0.00832775  0.35798868     0.15030
H1556       H  0.20462925  0.05904957  0.31226545     0.15030
C1557       C  0.15694171  0.10112193  0.32179907     0.36690
C1558       C  0.15423761  0.96706652  0.33561431     0.36590
N1559       N  0.15756068  0.12793810  0.31518822    -0.43660
N1560       N  0.15284423  0.93955686  0.33680752    -0.43650
C1561       C  0.15326648  0.07083988  0.64936379    -0.00070
C1562       C  0.17446409  0.04463196  0.64780244    -0.11940
C1563       C  0.17756355  0.02876221  0.61875092     0.02170
C1564       C  0.16546760  0.04349147  0.58962186    -0.00150
C1565       C  0.15129150  0.07435306  0.59099947    -0.11880
C1566       C  0.14488015  0.08805972  0.62091095     0.02050
H1567       H  0.18120658  0.03184697  0.66988393     0.15030
H1568       H  0.14288869  0.08656598  0.56913653     0.15030
C1569       C  0.12386033  0.11621860  0.62210218     0.36690
C1570       C  0.18799326  0.99552100  0.62122646     0.36590
N1571       N  0.10660602  0.13845845  0.62338731    -0.43660
N1572       N  0.19549883  0.96876377  0.62426205    -0.43650
C1573       C  0.74633938  0.16615810  0.49601645    -0.00070
C1574       C  0.74379326  0.17762097  0.52780998    -0.11940
C1575       C  0.74898527  0.21029616  0.53561588     0.02170
C1576       C  0.75800779  0.23246579  0.51183878    -0.00150
C1577       C  0.76036125  0.22096204  0.48034827    -0.11880
C1578       C  0.75386358  0.18910509  0.47222194     0.02050
H1579       H  0.73840174  0.16099874  0.54675401     0.15030
H1580       H  0.76609694  0.23746530  0.46143101     0.15030
C1581       C  0.75386142  0.18117888  0.43850022     0.36690
C1582       C  0.74542527  0.22055096  0.56835886     0.36590
N1583       N  0.75384799  0.17500386  0.41142446    -0.43660
N1584       N  0.74256478  0.22892471  0.59460975    -0.43650
C1585       C  0.75763011  0.98084111  0.29802519    -0.00070
C1586       C  0.74836408  0.95541857  0.31805354    -0.11940
C1587       C  0.73776991  0.96052650  0.35024465     0.02170
C1588       C  0.73422228  0.99174836  0.36316018    -0.00150
C1589       C  0.74057634  0.01688502  0.34174725    -0.11880
C1590       C  0.75343622  0.01199126  0.31104983     0.02050
H1591       H  0.75021438  0.93129470  0.30885437     0.15030
H1592       H  0.73851243  0.04120707  0.35054699     0.15030
C1593       C  0.76135472  0.04032761  0.29362275     0.36690
C1594       C  0.73083234  0.93325429  0.36959957     0.36590
N1595       N  0.76726706  0.06399752  0.28107217    -0.43660
N1596       N  0.72472778  0.91117359  0.38470216    -0.43650
C1597       C  0.72674971  0.06068407  0.64265035    -0.00070
C1598       C  0.74740848  0.08431363  0.65425229    -0.11940
C1599       C  0.76253258  0.08240579  0.68537943     0.02170
C1600       C  0.75806418  0.05608304  0.70610236    -0.00150
C1601       C  0.73664717  0.03309260  0.69486697    -0.11880
C1602       C  0.72038418  0.03583803  0.66460229     0.02050
H1603       H  0.75415299  0.10290720  0.63783548     0.15030
H1604       H  0.73269547  0.01246014  0.70975703     0.15030
C1605       C  0.69953817  0.01063122  0.65504250     0.36690
C1606       C  0.78310191  0.10760792  0.69535096     0.36590
N1607       N  0.68280541  0.99042952  0.64747142    -0.43660
N1608       N  0.79961409  0.12783684  0.70334793    -0.43650
C1609       C  0.74916633  0.88781635  0.52908965    -0.00070
C1610       C  0.75170380  0.87298095  0.55962777    -0.11940
C1611       C  0.76708899  0.84286245  0.56456483     0.02170
C1612       C  0.78011869  0.82580936  0.53855991    -0.00150
C1613       C  0.77824709  0.84085048  0.50801640    -0.11880
C1614       C  0.76266843  0.87123925  0.50309874     0.02050
H1615       H  0.74257116  0.88573702  0.58028337     0.15030
H1616       H  0.78774959  0.82817412  0.48758630     0.15030
C1617       C  0.76130707  0.88527986  0.47143208     0.36690
C1618       C  0.76804087  0.82944200  0.59659227     0.36590
N1619       N  0.76013427  0.89683926  0.44611365    -0.43660
N1620       N  0.76820995  0.81891082  0.62235826    -0.43650
C1621       C  0.85225501  0.14912848  0.49501925    -0.00070
C1622       C  0.84331037  0.15276163  0.52714586    -0.11940
C1623       C  0.83750214  0.18342405  0.53911994     0.02170
C1624       C  0.84256057  0.20942644  0.51891310    -0.00150
C1625       C  0.83682948  0.20462600  0.48592160    -0.11880
C1626       C  0.84535485  0.17477783  0.47345885     0.02050
H1627       H  0.84167368  0.13216187  0.54275094     0.15030
H1628       H  0.83453146  0.22500186  0.46969713     0.15030
C1629       C  0.84839340  0.17151915  0.43913729     0.36690
C1630       C  0.82969173  0.18806877  0.57223642     0.36590
N1631       N  0.85078617  0.16891092  0.41163385    -0.43660
N1632       N  0.82245498  0.19158093  0.59863750    -0.43650
C1633       C  0.85639793  0.94679748  0.39724553    -0.00070
C1634       C  0.84049411  0.95782991  0.36870026    -0.11940
C1635       C  0.85769691  0.97830629  0.34948876     0.02170
C1636       C  0.89137421  0.97775300  0.35376159    -0.00150
C1637       C  0.90627996  0.95317228  0.37255489    -0.11880
C1638       C  0.88849009  0.93670654  0.39438263     0.02050
H1639       H  0.81451075  0.96082485  0.36826681     0.15030
H1640       H  0.93192804  0.95012901  0.37398289     0.15030
C1641       C  0.90563097  0.91840249  0.41910505     0.36690
C1642       C  0.84055794  0.00381486  0.33221300     0.36590
N1643       N  0.92073654  0.90477776  0.43883816    -0.43660
N1644       N  0.82760280  0.02510992  0.31886765    -0.43650
C1645       C  0.85652553  0.09910284  0.61889970    -0.00070
C1646       C  0.85210912  0.08612150  0.64956925    -0.11940
C1647       C  0.87740802  0.06579915  0.66064270     0.02170
C1648       C  0.90833649  0.07215169  0.64988932    -0.00150
C1649       C  0.91229311  0.10036330  0.63241786    -0.11880
C1650       C  0.88629935  0.11289025  0.61438406     0.02050
H1651       H  0.82814883  0.08044486  0.65635631     0.15030
H1652       H  0.93586518  0.10826350  0.62685669     0.15030
C1653       C  0.89459529  0.12755960  0.58471763     0.36690
C1654       C  0.86949266  0.03475602  0.67244368     0.36590
N1655       N  0.90452840  0.13704817  0.56105142    -0.43660
N1656       N  0.86274771  0.00919431  0.67946470    -0.43650
C1657       C  0.22235962  0.77037139  0.47327796    -0.00070
C1658       C  0.20052619  0.77596228  0.44700441    -0.11940
C1659       C  0.16727266  0.76943488  0.44874073     0.02170
C1660       C  0.15453720  0.75603921  0.47684704    -0.00150
C1661       C  0.17619799  0.75006000  0.50273730    -0.11880
C1662       C  0.20910917  0.75710633  0.50149786     0.02050
H1663       H  0.20937755  0.78592099  0.42502521     0.15030
H1664       H  0.16683848  0.74147055  0.52511702     0.15030
C1665       C  0.22733205  0.75155818  0.53096590     0.36690
C1666       C  0.14624760  0.77756563  0.42154841     0.36590
N1667       N  0.23958244  0.74613554  0.55581145    -0.43660
N1668       N  0.12925071  0.78392918  0.39978175    -0.43650
C1669       C  0.03204564  0.76261505  0.29173245    -0.00070
C1670       C  0.00505744  0.74676287  0.30129155    -0.11940
C1671       C  0.00536883  0.72821413  0.32928841     0.02170
C1672       C  0.03048292  0.73029299  0.35308106    -0.00150
C1673       C  0.05730994  0.74765225  0.34470534    -0.11880
C1674       C  0.05882680  0.76250160  0.31384684     0.02050
H1675       H  0.98355903  0.74797229  0.28611153     0.15030
H1676       H  0.07676809  0.75008209  0.36224136     0.15030
C1677       C  0.08803740  0.77750161  0.30584905     0.36690
C1678       C  0.97846765  0.70790315  0.33329982     0.36590
N1679       N  0.11188425  0.78917112  0.29999278    -0.43660
N1680       N  0.95691254  0.69173992  0.33654357    -0.43650
C1681       C  0.01554479  0.76211218  0.63193704    -0.00070
C1682       C  0.04267089  0.75230939  0.65086839    -0.11940
C1683       C  0.04570003  0.76018621  0.68389496     0.02170
C1684       C  0.02120749  0.77849444  0.69929340    -0.00150
C1685       C  0.99374790  0.78769745  0.68042649    -0.11880
C1686       C  0.99083592  0.77983348  0.64740121     0.02050
H1687       H  0.06258352  0.74007062  0.63932426     0.15030
H1688       H  0.97445260  0.80133943  0.69150674     0.15030
C1689       C  0.96241982  0.79097812  0.62940314     0.36690
C1690       C  0.07530671  0.75068345  0.70060531     0.36590
N1691       N  0.93963879  0.79970845  0.61486247    -0.43660
N1692       N  0.09936366  0.74271003  0.71332789    -0.43650
C1693       C  0.87928066  0.74058466  0.52333503    -0.00070
C1694       C  0.87340254  0.75280574  0.55427085    -0.11940
C1695       C  0.84322450  0.76830858  0.56128970     0.02170
C1696       C  0.81966025  0.77496665  0.53641887    -0.00150
C1697       C  0.82672614  0.76427551  0.50566796    -0.11880
C1698       C  0.85349467  0.74424497  0.50006169     0.02050
H1699       H  0.89208286  0.75028344  0.57285865     0.15030
H1700       H  0.80998686  0.77004311  0.48593717     0.15030
C1701       C  0.85385273  0.72835396  0.46927054     0.36690
C1702       C  0.83737672  0.77745524  0.59393360     0.36590
N1703       N  0.85530278  0.71651496  0.44425900    -0.43660
N1704       N  0.83317658  0.78437490  0.62039829    -0.43650
C1705       C  0.85351587  0.84150484  0.47944049    -0.00070
C1706       C  0.85711616  0.83713358  0.51281022    -0.11940
C1707       C  0.85542176  0.86339685  0.53321915     0.02170
C1708       C  0.85121144  0.89402884  0.51962521    -0.00150
C1709       C  0.84056310  0.89725146  0.48738986    -0.11880
C1710       C  0.84024471  0.87060004  0.46751687     0.02050
H1711       H  0.86746777  0.81483196  0.52224220     0.15030
H1712       H  0.83390583  0.92060837  0.47745946     0.15030
C1713       C  0.83286905  0.87466875  0.43357666     0.36690
C1714       C  0.85955736  0.85849992  0.56740282     0.36590
N1715       N  0.82689897  0.87756156  0.40635838    -0.43660
N1716       N  0.86179715  0.85422640  0.59486867    -0.43650
C1717       C  0.09857936  0.87970258  0.42788848    -0.00070
C1718       C  0.12372819  0.86859109  0.40880254    -0.11940
C1719       C  0.15456290  0.87939320  0.41435197     0.02170
C1720       C  0.16015573  0.89940073  0.44066755    -0.00150
C1721       C  0.13507392  0.90950201  0.46023357    -0.11880
C1722       C  0.10411540  0.90173827  0.45261889     0.02050
H1723       H  0.11957568  0.85049917  0.39079931     0.15030
H1724       H  0.13938078  0.92597265  0.47984113     0.15030
C1725       C  0.07885556  0.91383715  0.47290934     0.36690
C1726       C  0.18004803  0.86957943  0.39340035     0.36590
N1727       N  0.05875638  0.92337859  0.48929470    -0.43660
N1728       N  0.20054559  0.86179350  0.37664247    -0.43650
C1729       C  0.00287256  0.90112043  0.34119111    -0.00070
C1730       C  0.96994760  0.89909250  0.33359155    -0.11940
C1731       C  0.95739237  0.86953688  0.32497516     0.02170
C1732       C  0.97736552  0.84174131  0.32826631    -0.00150
C1733       C  0.01019680  0.84558682  0.32448020    -0.11880
C1734       C  0.02344581  0.87454744  0.33356185     0.02050
H1735       H  0.95419779  0.92012271  0.33457416     0.15030
H1736       H  0.02597215  0.82454018  0.32278172     0.15030
C1737       C  0.05796636  0.87568581  0.33647964     0.36690
C1738       C  0.92307715  0.86678998  0.32208156     0.36590
N1739       N  0.08562794  0.87673156  0.33843339    -0.43660
N1740       N  0.89554141  0.86446495  0.31999229    -0.43650
C1741       C  0.02053711  0.93353958  0.61303662    -0.00070
C1742       C  0.99191882  0.91912845  0.62180455    -0.11940
C1743       C  0.97107980  0.90705000  0.59897424     0.02170
C1744       C  0.97877438  0.90855283  0.56666829    -0.00150
C1745       C  0.00495697  0.92611487  0.55722758    -0.11880
C1746       C  0.02673549  0.93740054  0.58017288     0.02050
H1747       H  0.98574105  0.91628533  0.64674764     0.15030
H1748       H  0.01113779  0.92645301  0.53210594     0.15030
C1749       C  0.05645713  0.94963842  0.56931525     0.36690
C1750       C  0.94422307  0.88954925  0.60970243     0.36590
N1751       N  0.08034910  0.95920478  0.56049751    -0.43660
N1752       N  0.92302010  0.87558222  0.61909284    -0.43650
C1753       C  0.78400179  0.16871399  0.00283946    -0.00070
C1754       C  0.76177599  0.18141366  0.97931026    -0.11940
C1755       C  0.74716204  0.21259936  0.98133958     0.02170
C1756       C  0.75477239  0.23334249  0.00713707    -0.00150
C1757       C  0.77678337  0.22053832  0.03090162    -0.11880
C1758       C  0.79112740  0.18921444  0.02891760     0.02050
H1759       H  0.75368736  0.16575452  0.96030377     0.15030
H1760       H  0.78278642  0.23513096  0.05146434     0.15030
C1761       C  0.81182635  0.17777934  0.05522532     0.36690
C1762       C  0.72354641  0.22198463  0.95678779     0.36590
N1763       N  0.82842942  0.16861132  0.07634103    -0.43660
N1764       N  0.70444610  0.22848886  0.93685336    -0.43650
C1765       C  0.79212716  0.88522518  0.02179348    -0.00070
C1766       C  0.78829000  0.86672612  0.99367676    -0.11940
C1767       C  0.76802371  0.84122298  0.99162485     0.02170
C1768       C  0.75716953  0.82714730  0.01965129    -0.00150
C1769       C  0.76252955  0.84368176  0.04901534    -0.11880
C1770       C  0.77821743  0.87349114  0.04988569     0.02050
H1771       H  0.79876355  0.87415290  0.97142881     0.15030
H1772       H  0.75466328  0.83327098  0.07118329     0.15030
C1773       C  0.77985626  0.89118127  0.07942141     0.36690
C1774       C  0.76072770  0.82918416  0.95993417     0.36590
N1775       N  0.78109147  0.90543511  0.10314284    -0.43660
N1776       N  0.75608093  0.82098529  0.93377234    -0.43650
C1777       C  0.80036186  0.04477619  0.86390393    -0.00070
C1778       C  0.78337814  0.07326482  0.85479563    -0.11940
C1779       C  0.76731946  0.07668908  0.82409594     0.02170
C1780       C  0.76794046  0.05139356  0.80135034    -0.00150
C1781       C  0.78574839  0.02350234  0.81031461    -0.11880
C1782       C  0.80261810  0.02054130  0.84005639     0.02050
H1783       H  0.78128794  0.09233663  0.87214373     0.15030
H1784       H  0.78669554  0.00367169  0.79374802     0.15030
C1785       C  0.82158048  0.99135796  0.84589601     0.36690
C1786       C  0.74957669  0.10619815  0.81711801     0.36590
N1787       N  0.83673672  0.96796153  0.85046773    -0.43660
N1788       N  0.73530189  0.13006510  0.81233230    -0.43650
C1789       C  0.77154785  0.98710831  0.13773234    -0.00070
C1790       C  0.79574758  0.97608371  0.15981980    -0.11940
C1791       C  0.78738211  0.96116500  0.18937011     0.02170
C1792       C  0.75557798  0.96515452  0.20138274    -0.00150
C1793       C  0.73245843  0.96771137  0.17617034    -0.11880
C1794       C  0.74064399  0.97654469  0.14429267     0.02050
H1795       H  0.82066479  0.97721254  0.15343218     0.15030
H1796       H  0.70915173  0.95951915  0.18101651     0.15030
C1797       C  0.72150192  0.96650340  0.11712887     0.36690
C1798       C  0.80877062  0.93603258  0.20201255     0.36590
N1799       N  0.70855773  0.95710254  0.09430054    -0.43660
N1800       N  0.82560710  0.91510573  0.21116937    -0.43650
C1801       C  0.25163862  0.88133293  0.99332648    -0.00070
C1802       C  0.24581524  0.86915984  0.02418843    -0.11940
C1803       C  0.25456453  0.83692186  0.03279294     0.02170
C1804       C  0.27057189  0.81626203  0.01085768    -0.00150
C1805       C  0.27725928  0.82893490  0.98079014    -0.11880
C1806       C  0.26671609  0.85997453  0.97138146     0.02050
H1807       H  0.23497754  0.88486952  0.04176682     0.15030
H1808       H  0.28866295  0.81340019  0.96339675     0.15030
C1809       C  0.27011109  0.86844962  0.93798524     0.36690
C1810       C  0.24743174  0.82573725  0.06449818     0.36590
N1811       N  0.27277735  0.87507247  0.91118733    -0.43660
N1812       N  0.24168700  0.81682211  0.08998016    -0.43650
C1813       C  0.24688544  0.22346439  0.94968507    -0.00070
C1814       C  0.23750655  0.21259975  0.97987391    -0.11940
C1815       C  0.22023879  0.18468049  0.98445081     0.02170
C1816       C  0.21718739  0.16106340  0.96004128    -0.00150
C1817       C  0.22742640  0.17083221  0.92925868    -0.11880
C1818       C  0.24025297  0.20208238  0.92377183     0.02050
H1819       H  0.24161155  0.22728042  0.00043917     0.15030
H1820       H  0.22537537  0.15435267  0.90941906     0.15030
C1821       C  0.24833374  0.21094217  0.89164306     0.36690
C1822       C  0.20486461  0.18185186  0.01503113     0.36590
N1823       N  0.25494819  0.21813905  0.86586079    -0.43660
N1824       N  0.19264422  0.17969960  0.03952879    -0.43650
C1825       C  0.25792879  0.02108172  0.78131311    -0.00070
C1826       C  0.25303592  0.05015141  0.79782429    -0.11940
C1827       C  0.23576346  0.05190047  0.82677841     0.02170
C1828       C  0.22204646  0.02449373  0.84000358    -0.00150
C1829       C  0.22558192  0.99596817  0.82239079    -0.11880
C1830       C  0.24406840  0.99379915  0.79453414     0.02050
H1831       H  0.26244693  0.07171408  0.78793227     0.15030
H1832       H  0.21718332  0.97410908  0.83275731     0.15030
C1833       C  0.24956880  0.96267715  0.78067755     0.36690
C1834       C  0.23438884  0.08170749  0.84402858     0.36590
N1835       N  0.25392138  0.93744377  0.77013068    -0.43660
N1836       N  0.23335357  0.10551540  0.85799901    -0.43650
C1837       C  0.22746535  0.99774278  0.12505320    -0.00070
C1838       C  0.22563779  0.02388670  0.14654046    -0.11940
C1839       C  0.24238496  0.02417275  0.17623781     0.02170
C1840       C  0.25835985  0.99625735  0.18854529    -0.00150
C1841       C  0.25945810  0.96924690  0.16803186    -0.11880
C1842       C  0.24505333  0.97011056  0.13632227     0.02050
H1843       H  0.21287507  0.04583333  0.13894981     0.15030
H1844       H  0.27175555  0.94747750  0.17669726     0.15030
C1845       C  0.24953744  0.94296667  0.11563071     0.36690
C1846       C  0.24400916  0.05429856  0.19281078     0.36590
N1847       N  0.25323753  0.92117197  0.09899286    -0.43660
N1848       N  0.24543808  0.07863673  0.20570219    -0.43650
C1849       C  0.49788831  0.15456691  0.27928205    -0.00070
C1850       C  0.52523439  0.17312125  0.27502780    -0.11940
C1851       C  0.52451648  0.20133158  0.25660473     0.02170
C1852       C  0.49525952  0.21544164  0.24511347    -0.00150
C1853       C  0.46699194  0.19905666  0.25205434    -0.11880
C1854       C  0.46813318  0.16876935  0.26833774     0.02050
H1855       H  0.54841653  0.16461784  0.28474113     0.15030
H1856       H  0.44390649  0.20999596  0.24498928     0.15030
C1857       C  0.43865457  0.15301168  0.27354636     0.36690
C1858       C  0.55469694  0.21485878  0.24902971     0.36590
N1859       N  0.41492075  0.14043428  0.27776763    -0.43660
N1860       N  0.57910423  0.22505353  0.24262130    -0.43650
C1861       C  0.50715546  0.80679547  0.25057862    -0.00070
C1862       C  0.53471280  0.82512709  0.24873854    -0.11940
C1863       C  0.53463236  0.85752080  0.25849101     0.02170
C1864       C  0.50590820  0.87356662  0.26771461    -0.00150
C1865       C  0.47881328  0.85492386  0.27115635    -0.11880
C1866       C  0.47961277  0.82182425  0.26409178     0.02050
H1867       H  0.55661332  0.81397024  0.23997748     0.15030
H1868       H  0.45646840  0.86652207  0.27830815     0.15030
C1869       C  0.45134958  0.80422528  0.26999817     0.36690
C1870       C  0.56431054  0.87407501  0.25839305     0.36590
N1871       N  0.42858123  0.79033836  0.27509105    -0.43660
N1872       N  0.58810008  0.88737110  0.25828196    -0.43650
C1873       C  0.36762015  0.01389169  0.26090667    -0.00070
C1874       C  0.35488952  0.98342043  0.26483920    -0.11940
C1875       C  0.32455692  0.97570223  0.25108917     0.02170
C1876       C  0.30584258  0.99840416  0.23237166    -0.00150
C1877       C  0.31901438  0.02846639  0.22777530    -0.11880
C1878       C  0.34879316  0.03637629  0.24205787     0.02050
H1879       H  0.36958128  0.96486840  0.27697708     0.15030
H1880       H  0.30545090  0.04654250  0.21393534     0.15030
C1881       C  0.36059779  0.06763026  0.23546156     0.36690
C1882       C  0.31340582  0.94391379  0.25569589     0.36590
N1883       N  0.37010508  0.09262437  0.23010974    -0.43660
N1884       N  0.30443786  0.91839833  0.25932955    -0.43650
C1885       C  0.64925987  0.97634136  0.28091327    -0.00070
C1886       C  0.65728765  0.94847816  0.26298904    -0.11940
C1887       C  0.68823523  0.94416867  0.24842856     0.02170
C1888       C  0.71011940  0.96952548  0.24758439    -0.00150
C1889       C  0.69957917  0.99793647  0.26201281    -0.11880
C1890       C  0.67369401  0.99928000  0.28280014     0.02050
H1891       H  0.63989162  0.93008341  0.26056627     0.15030
H1892       H  0.71397847  0.01864257  0.25978403     0.15030
C1893       C  0.67184317  0.02660034  0.30395493     0.36690
C1894       C  0.69685025  0.91390197  0.23425323     0.36590
N1895       N  0.67035860  0.04853648  0.32071510    -0.43660
N1896       N  0.70385936  0.88960183  0.22281125    -0.43650
C1897       C  0.41689815  0.07172513  0.13290183    -0.00070
C1898       C  0.38887514  0.08831783  0.14246700    -0.11940
C1899       C  0.35855696  0.07687600  0.13439087     0.01210
C1900       C  0.35657064  0.04723264  0.11867312    -0.00150
C1901       C  0.38493898  0.02967146  0.11208151    -0.11880
C1902       C  0.41430191  0.04357075  0.11486190     0.02050
H1903       H  0.39077741  0.10909842  0.15774895     0.15030
H1904       H  0.38374593  0.00674610  0.10008334     0.15030
C1905       C  0.44214657  0.02580273  0.10341377     0.36690
C1906       C  0.33035375  0.09552169  0.14302600     0.36590
N1907       N  0.46432850  0.01145267  0.09433356    -0.43660
N1908       N  0.30787189  0.11061269  0.15017375    -0.43650
C1909       C  0.65560485  0.01088407  0.11426950    -0.00070
C1910       C  0.64934541  0.97962224  0.12372038    -0.11940
C1911       C  0.65342694  0.97091689  0.15620203     0.02170
C1912       C  0.65954147  0.99486325  0.17911336    -0.00150
C1913       C  0.67399196  0.02221797  0.16909859    -0.11880
C1914       C  0.66703075  0.03271917  0.13792194     0.02050
H1915       H  0.64247871  0.96208926  0.10601818     0.15030
H1916       H  0.68147281  0.03940488  0.18699833     0.15030
C1917       C  0.66952005  0.06660830  0.13185375     0.36690
C1918       C  0.64498993  0.93965566  0.16692604     0.36590
N1919       N  0.67138973  0.09370822  0.12713111    -0.43660
N1920       N  0.63844078  0.91474190  0.17622576    -0.43650
C1921       C  0.64136107  0.30052606  0.01725548    -0.00070
C1922       C  0.65738308  0.30582986  0.98843174    -0.11940
C1923       C  0.68989690  0.29551960  0.98441866     0.02170
C1924       C  0.70777028  0.27905781  0.00948933    -0.00150
C1925       C  0.69216680  0.27482625  0.03860039    -0.11880
C1926       C  0.65986123  0.28536443  0.04264055     0.02050
H1927       H  0.64361314  0.31554550  0.96788254     0.15030
H1928       H  0.70529992  0.26294315  0.05842147     0.15030
C1929       C  0.64521687  0.27778274  0.07256921     0.36690
C1930       C  0.70349553  0.30023306  0.95337882     0.36590
N1931       N  0.63367944  0.27135213  0.09657771    -0.43660
N1932       N  0.71406505  0.30393231  0.92828461    -0.43650
C1933       C  0.35699213  0.29802000  0.95883815    -0.00070
C1934       C  0.33840432  0.28617359  0.98425215    -0.11940
C1935       C  0.31037466  0.26889726  0.97973065     0.02170
C1936       C  0.29470683  0.26717572  0.94923975    -0.00150
C1937       C  0.31143006  0.28109110  0.92338397    -0.11880
C1938       C  0.34268306  0.29470905  0.92768693     0.02050
H1939       H  0.34673311  0.28860023  0.00899042     0.15030
H1940       H  0.30015746  0.28118432  0.89959834     0.15030
C1941       C  0.35904355  0.30575577  0.90004120     0.36690
C1942       C  0.29745011  0.25548010  0.00837731     0.36590
N1943       N  0.37225351  0.31465606  0.87783615    -0.43660
N1944       N  0.28845534  0.24589152  0.03249844    -0.43650
C1945       C  0.51533398  0.28088179  0.85591390    -0.00070
C1946       C  0.48612458  0.28970671  0.83974221    -0.11940
C1947       C  0.48141942  0.28412967  0.80622023     0.02170
C1948       C  0.50529614  0.26740744  0.78838470    -0.00150
C1949       C  0.53412385  0.25856586  0.80469899    -0.11880
C1950       C  0.53998665  0.26679353  0.83702910     0.02050
H1951       H  0.46688947  0.30080237  0.85322771     0.15030
H1952       H  0.55320232  0.24695778  0.79135152     0.15030
C1953       C  0.57257659  0.26235915  0.84941623     0.36690
C1954       C  0.45200135  0.29611059  0.79070918     0.36590
N1955       N  0.59878687  0.25893796  0.85910718    -0.43660
N1956       N  0.42841618  0.30600866  0.77837112    -0.43650
C1957       C  0.49455524  0.29398736  0.13728777    -0.00070
C1958       C  0.46598423  0.28676262  0.15309316    -0.11940
C1959       C  0.46583332  0.26879151  0.18160590     0.02170
C1960       C  0.49471370  0.25930891  0.19771872    -0.00150
C1961       C  0.52366520  0.26790324  0.18328853    -0.11880
C1962       C  0.52375948  0.28510950  0.15356568     0.02050
H1963       H  0.44287648  0.29405718  0.14224777     0.15030
H1964       H  0.54626403  0.26242379  0.19594176     0.15030
C1965       C  0.55383834  0.29423375  0.14096153     0.36690
C1966       C  0.43528895  0.26067159  0.19417452     0.36590
N1967       N  0.57797122  0.30200445  0.13106540    -0.43660
N1968       N  0.41072942  0.25403432  0.20397572    -0.43650
C1969       C  0.48384399  0.19475474  0.14056669    -0.00070
C1970       C  0.47170426  0.17618042  0.16482117    -0.11940
C1971       C  0.49289005  0.15940592  0.18568380     0.02170
C1972       C  0.52628263  0.16342198  0.18330940    -0.00150
C1973       C  0.53755088  0.18716045  0.16353110    -0.11880
C1974       C  0.51663933  0.20208998  0.14103967     0.02050
H1975       H  0.44654486  0.17042910  0.16390212     0.15030
H1976       H  0.56321135  0.18976492  0.16160016     0.15030
C1977       C  0.53026178  0.21986848  0.11521925     0.36690
C1978       C  0.48049681  0.13312839  0.20354340     0.36590
N1979       N  0.54119555  0.23376295  0.09435567    -0.43660
N1980       N  0.47060678  0.11169645  0.21724103    -0.43650
C1981       C  0.30761147  0.17787320  0.99404308    -0.00070
C1982       C  0.31182333  0.18661032  0.96199367    -0.11940
C1983       C  0.34165188  0.19496765  0.95227382     0.02170
C1984       C  0.36742381  0.19019955  0.97414427    -0.00150
C1985       C  0.36187879  0.18617871  0.00718922    -0.11880
C1986       C  0.33102571  0.18417597  0.01746788     0.02050
H1987       H  0.29458592  0.18034317  0.94357657     0.15030
H1988       H  0.38149795  0.18608528  0.02491148     0.15030
C1989       C  0.32575559  0.17938650  0.05132947     0.36690
C1990       C  0.34536945  0.20712848  0.92013342     0.36590
N1991       N  0.32155170  0.17545699  0.07840471    -0.43660
N1992       N  0.34816998  0.21738360  0.89455457    -0.43650
C1993       C  0.64093651  0.13028265  0.97857676    -0.00070
C1994       C  0.65182711  0.15409563  0.99951242    -0.11940
C1995       C  0.63694601  0.15980883  0.02845225     0.02170
C1996       C  0.60656378  0.14736216  0.03366289    -0.00150
C1997       C  0.59427427  0.12547562  0.01134959    -0.11880
C1998       C  0.61033149  0.11826583  0.98326469     0.02050
H1999       H  0.67489592  0.16447431  0.99573276     0.15030
H2000       H  0.57027983  0.11686946  0.01371048     0.15030
C2001       C  0.59371035  0.10052404  0.95876940     0.36690
C2002       C  0.65133383  0.18176876  0.05078891     0.36590
N2003       N  0.57978878  0.08663356  0.93928078    -0.43660
N2004       N  0.66309462  0.19932269  0.06851359    -0.43650
C2005       C  0.71736152  0.05327924  0.76110717    -0.00070
C2006       C  0.70196019  0.02395234  0.76395294    -0.11940
C2007       C  0.67034511  0.02002152  0.75138615     0.02170
C2008       C  0.65334449  0.04561146  0.73550725    -0.00150
C2009       C  0.66921395  0.07446175  0.73210062    -0.11880
C2010       C  0.70013012  0.07871868  0.74517338     0.02050
H2011       H  0.71507242  0.00373843  0.77506918     0.15030
H2012       H  0.65626948  0.09483994  0.72102017     0.15030
C2013       C  0.71370665  0.10962783  0.74155734     0.36690
C2014       C  0.65550941  0.98984579  0.75566843     0.36590
N2015       N  0.72424073  0.13455515  0.73843565    -0.43660
N2016       N  0.64356277  0.96563531  0.75903033    -0.43650
C2017       C  0.30540219  0.02239742  0.73973526    -0.00070
C2018       C  0.32356540  0.99368060  0.73851648    -0.11940
C2019       C  0.35529798  0.99233449  0.72792223     0.02170
C2020       C  0.37138453  0.02051896  0.71991704    -0.00150
C2021       C  0.35326531  0.04965987  0.72109752    -0.11880
C2022       C  0.32049447  0.05063539  0.73021326     0.02050
H2023       H  0.31270692  0.97181843  0.74575764     0.15030
H2024       H  0.36493252  0.07174938  0.71621294     0.15030
C2025       C  0.30297740  0.08096884  0.73044618     0.36690
C2026       C  0.37120309  0.96115622  0.72616813     0.36590
N2027       N  0.28882092  0.10527529  0.73064773    -0.43660
N2028       N  0.38382834  0.93613255  0.72478856    -0.43650
C2029       C  0.49155950  0.17274630  0.69805169    -0.00070
C2030       C  0.46704861  0.18530464  0.71780960    -0.11940
C2031       C  0.47077059  0.21343422  0.73649581     0.02170
C2032       C  0.50008244  0.22972176  0.73713472    -0.00150
C2033       C  0.52425317  0.21719764  0.71720028    -0.11880
C2034       C  0.51891333  0.19178802  0.69565941     0.02050
H2035       H  0.44606957  0.17130803  0.72115773     0.15030
H2036       H  0.54707387  0.22865742  0.71703864     0.15030
C2037       C  0.54475131  0.18180271  0.67513494     0.36690
C2038       C  0.44408254  0.22442620  0.75521000     0.36590
N2039       N  0.56542252  0.17385042  0.65866153    -0.43660
N2040       N  0.42216183  0.23239205  0.77002354    -0.43650
C2041       C  0.54063365  0.89218517  0.74682990    -0.00070
C2042       C  0.52360610  0.87764767  0.77175300    -0.11940
C2043       C  0.52654283  0.84508248  0.77977610     0.02170
C2044       C  0.54676715  0.82388459  0.76244238    -0.00150
C2045       C  0.56619648  0.83858988  0.73919270    -0.11880
C2046       C  0.56277737  0.87188121  0.73088167     0.02050
H2047       H  0.50678098  0.89177267  0.78567302     0.15030
H2048       H  0.58352435  0.82384327  0.72656876     0.15030
C2049       C  0.58186258  0.88435719  0.70579773     0.36690
C2050       C  0.50722688  0.83493714  0.80590088     0.36590
N2051       N  0.59715482  0.89431119  0.68555703    -0.43660
N2052       N  0.49158089  0.82824356  0.82725748    -0.43650
C2053       C  0.45739112  0.18203128  0.82393887    -0.00070
C2054       C  0.48675809  0.19652257  0.82839601    -0.11940
C2055       C  0.50287867  0.18994754  0.85768488     0.02170
C2056       C  0.48477576  0.18003098  0.88410221    -0.00150
C2057       C  0.45088527  0.18134112  0.88077468    -0.11880
C2058       C  0.43689825  0.18458705  0.84979084     0.02050
H2059       H  0.50090520  0.20099212  0.80751252     0.15030
H2060       H  0.43588321  0.17836234  0.90127804     0.15030
C2061       C  0.40281890  0.18348808  0.84397804     0.36690
C2062       C  0.53756028  0.18798896  0.85810593     0.36590
N2063       N  0.37555541  0.18291961  0.83815550    -0.43660
N2064       N  0.56530766  0.18581182  0.85818966    -0.43650
C2065       C  0.32933823  0.09062206  0.86849040    -0.00070
C2066       C  0.32115181  0.07099377  0.84236524    -0.11940
C2067       C  0.34646052  0.05554221  0.82684962     0.02170
C2068       C  0.37686011  0.06869498  0.83025740    -0.00150
C2069       C  0.37872712  0.09952627  0.84301629    -0.11880
C2070       C  0.35648112  0.10907954  0.86555631     0.02050
H2071       H  0.29872274  0.05903458  0.84264763     0.15030
H2072       H  0.40087261  0.11183829  0.84219315     0.15030
C2073       C  0.36752883  0.13002835  0.89039462     0.36690
C2074       C  0.34212439  0.02317787  0.81644007     0.36590
N2075       N  0.37856031  0.14555344  0.91039561    -0.43660
N2076       N  0.33838318  0.99683094  0.80959590    -0.43650
C2077       C  0.69049705  0.03174115  0.85599039    -0.00070
C2078       C  0.66740744  0.02061919  0.83456027    -0.11940
C2079       C  0.63734487  0.03600545  0.83351670     0.02170
C2080       C  0.63290706  0.06484633  0.85065378    -0.00150
C2081       C  0.65924029  0.08042182  0.86330203    -0.11880
C2082       C  0.68889527  0.06413837  0.86541566     0.02050
H2083       H  0.66995626  0.99645372  0.82545063     0.15030
H2084       H  0.65597030  0.10373172  0.87425508     0.15030
C2085       C  0.71257244  0.07659757  0.88753712     0.36690
C2086       C  0.61117471  0.02039441  0.81730824     0.36590
N2087       N  0.73053399  0.08649805  0.90633736    -0.43660
N2088       N  0.59033628  0.00771247  0.80437111    -0.43650
C2089       C  0.30898253  0.76421180  0.01519193    -0.00070
C2090       C  0.31677201  0.74298720  0.99028130    -0.11940
C2091       C  0.34498646  0.72345374  0.99117947     0.02170
C2092       C  0.37003365  0.72822654  0.01430471    -0.00150
C2093       C  0.36304982  0.75031047  0.03902042    -0.11880
C2094       C  0.33265700  0.76729787  0.04016094     0.02050
H2095       H  0.30015496  0.74105643  0.96997619     0.15030
H2096       H  0.38192813  0.75585372  0.05631097     0.15030
C2097       C  0.32680849  0.78854666  0.06663522     0.36690
C2098       C  0.34918260  0.70055169  0.96563493     0.36590
N2099       N  0.32233058  0.80557880  0.08797781    -0.43660
N2100       N  0.35240694  0.68217539  0.94520788    -0.43650
C2101       C  0.65149518  0.75568567  0.01202633    -0.00070
C2102       C  0.67094799  0.75421965  0.98507630    -0.11940
C2103       C  0.70252544  0.76604720  0.98623867     0.02170
C2104       C  0.71490501  0.78161052  0.01427479    -0.00150
C2105       C  0.69523610  0.78318446  0.04083039    -0.11880
C2106       C  0.66515131  0.76916812  0.04060834     0.02050
H2107       H  0.66130565  0.74456821  0.96285528     0.15030
H2108       H  0.70424452  0.79400538  0.06274907     0.15030
C2109       C  0.64887969  0.76882168  0.07082692     0.36690
C2110       C  0.72139557  0.76142483  0.95810996     0.36590
N2111       N  0.63592609  0.76860799  0.09504176    -0.43660
N2112       N  0.73589173  0.75648436  0.93525100    -0.43650
C2113       C  0.50588239  0.72738996  0.14525776    -0.00070
C2114       C  0.47920579  0.74561137  0.15597286    -0.11940
C2115       C  0.48003857  0.76222959  0.18566205     0.02170
C2116       C  0.50833282  0.76153259  0.20571037    -0.00150
C2117       C  0.53528891  0.74436603  0.19416578    -0.11880
C2118       C  0.53386747  0.72659165  0.16553989     0.02050
H2119       H  0.45824392  0.74868345  0.14005025     0.15030
H2120       H  0.55734094  0.74340816  0.20867086     0.15030
C2121       C  0.56264936  0.70922224  0.15609663     0.36690
C2122       C  0.45115375  0.77948135  0.19457295     0.36590
N2123       N  0.58570812  0.69534193  0.14850431    -0.43660
N2124       N  0.42733400  0.79294218  0.20054918    -0.43650
C2125       C  0.53244301  0.74877755  0.86429126    -0.00070
C2126       C  0.50861853  0.74601422  0.83997397    -0.11940
C2127       C  0.51161406  0.75893179  0.80900031     0.02170
C2128       C  0.54071471  0.77235520  0.79957681    -0.00150
C2129       C  0.56566085  0.77327892  0.82334552    -0.11880
C2130       C  0.56149606  0.76236958  0.85544035     0.02050
H2131       H  0.48550192  0.73728942  0.84650210     0.15030
H2132       H  0.58796041  0.78393944  0.81725055     0.15030
C2133       C  0.58631451  0.76760694  0.87945646     0.36690
C2134       C  0.48224395  0.76291401  0.78998656     0.36590
N2135       N  0.60615672  0.77184195  0.89881673    -0.43660
N2136       N  0.45783138  0.76599941  0.77616054    -0.43650
C2137       C  0.49359401  0.89268931  0.89659741    -0.00070
C2138       C  0.52572590  0.88592956  0.88921056    -0.11940
C2139       C  0.54572762  0.91083111  0.88238624     0.02170
C2140       C  0.53358395  0.94258884  0.88434622    -0.00150
C2141       C  0.50176308  0.94880364  0.89356058    -0.11880
C2142       C  0.48113446  0.92412816  0.89633450     0.02050
H2143       H  0.53552882  0.86157196  0.89067513     0.15030
H2144       H  0.49163368  0.97304980  0.89387543     0.15030
C2145       C  0.44744332  0.93136561  0.90139649     0.36690
C2146       C  0.57799718  0.90360221  0.87219873     0.36590
N2147       N  0.42042429  0.93685294  0.90523802    -0.43660
N2148       N  0.60384443  0.89790595  0.86395097    -0.43650
C2149       C  0.51467579  0.86913476  0.13023896    -0.00070
C2150       C  0.54051115  0.87934680  0.11187681    -0.11940
C2151       C  0.56475969  0.89605259  0.12706983     0.02170
C2152       C  0.55918604  0.90717963  0.15775595    -0.00150
C2153       C  0.54281554  0.88655513  0.17776119    -0.11880
C2154       C  0.51728629  0.87037994  0.16378519     0.02050
H2155       H  0.54276029  0.87241959  0.08695800     0.15030
H2156       H  0.54179877  0.89208173  0.20293216     0.15030
C2157       C  0.49196109  0.85891692  0.18299093     0.36690
C2158       C  0.59626912  0.89696051  0.11418282     0.36590
N2159       N  0.47026476  0.85057296  0.19699012    -0.43660
N2160       N  0.62208343  0.89672423  0.10472172    -0.43650
C2161       C  0.35681616  0.85160899  0.01822051    -0.00070
C2162       C  0.35176900  0.87327620  0.04366677    -0.11940
C2163       C  0.35383727  0.90630901  0.03832602     0.02170
C2164       C  0.35954654  0.91733858  0.00703001    -0.00150
C2165       C  0.35810486  0.89544799  0.98142236    -0.11880
C2166       C  0.35309508  0.86347074  0.98669633     0.02050
H2167       H  0.35218274  0.86434675  0.06818235     0.15030
H2168       H  0.35984020  0.90354410  0.95672363     0.15030
C2169       C  0.35032721  0.84282178  0.95908390     0.36690
C2170       C  0.35077596  0.92782488  0.06509574     0.36590
N2171       N  0.34823976  0.82640977  0.93689540    -0.43660
N2172       N  0.34819738  0.94498826  0.08665004    -0.43650
C2173       C  0.67023912  0.88889692  0.00243273    -0.00070
C2174       C  0.64978529  0.89669512  0.02779786    -0.11940
C2175       C  0.61719026  0.90149990  0.02075247     0.02170
C2176       C  0.60374581  0.88643980  0.99411831    -0.00150
C2177       C  0.62395186  0.87243826  0.97128165    -0.11880
C2178       C  0.65723042  0.87469291  0.97463621     0.02050
H2179       H  0.65961089  0.90803518  0.04914531     0.15030
H2180       H  0.61373892  0.85910261  0.95145210     0.15030
C2181       C  0.67700350  0.86471831  0.94841708     0.36690
C2182       C  0.59745575  0.92220462  0.04035799     0.36590
N2183       N  0.69238465  0.85688776  0.92694650    -0.43660
N2184       N  0.58135872  0.93944546  0.05509920    -0.43650
C2185       C  0.86585792  0.81883342  0.01077550    -0.00070
C2186       C  0.85728692  0.80886893  0.04180001    -0.11940
C2187       C  0.82825035  0.79222809  0.04652227     0.02170
C2188       C  0.80934423  0.78120729  0.01988043    -0.00150
C2189       C  0.81926223  0.78972315  0.98940917    -0.11880
C2190       C  0.84346130  0.81164379  0.98528899     0.02050
H2191       H  0.87304445  0.81376952  0.06218325     0.15030
H2192       H  0.80503254  0.78260859  0.96864369     0.15030
C2193       C  0.84437458  0.82688520  0.95399364     0.36690
C2194       C  0.81830374  0.78690035  0.07885954     0.36590
N2195       N  0.84495966  0.83906002  0.92899906    -0.43660
N2196       N  0.81040795  0.78306100  0.10497013    -0.43650
C2197       C  0.15134202  0.80885879  0.99541692    -0.00070
C2198       C  0.17307081  0.80660588  0.97022738    -0.11940
C2199       C  0.20451861  0.79245942  0.97469923     0.02170
C2200       C  0.21477584  0.77773432  0.00459936    -0.00150
C2201       C  0.19361116  0.78152096  0.03008922    -0.11880
C2202       C  0.16313795  0.79750329  0.02609189     0.02050
H2203       H  0.16484223  0.81421283  0.94633769     0.15030
H2204       H  0.20099334  0.77198622  0.05354140     0.15030
C2205       C  0.14317833  0.80010489  0.05382366     0.36690
C2206       C  0.22495712  0.79249132  0.94736382     0.36590
N2207       N  0.12718729  0.80218514  0.07603578    -0.43660
N2208       N  0.24078356  0.79258578  0.92497144    -0.43650
C2209       C  0.01792316  0.77445267  0.79345613    -0.00070
C2210       C  0.98781512  0.78409451  0.80487320    -0.11940
C2211       C  0.98458995  0.79813104  0.83522110     0.02170
C2212       C  0.01140751  0.80026675  0.85678918    -0.00150
C2213       C  0.04177004  0.79103675  0.84539210    -0.11880
C2214       C  0.04528599  0.77911169  0.81379820     0.02050
H2215       H  0.96667887  0.78174469  0.78939376     0.15030
H2216       H  0.06255821  0.79167452  0.86160229     0.15030
C2217       C  0.07720360  0.77137754  0.80317328     0.36690
C2218       C  0.95295874  0.80954022  0.84416679     0.36590
N2219       N  0.10298945  0.76532854  0.79495209    -0.43660
N2220       N  0.92766271  0.81878118  0.85131664    -0.43650
C2221       C  0.02549069  0.77257305  0.19740724    -0.00070
C2222       C  0.99554522  0.77841491  0.18090070    -0.11940
C2223       C  0.99288421  0.79553238  0.15102587     0.02170
C2224       C  0.02013915  0.80932059  0.13782083    -0.00150
C2225       C  0.04944053  0.80471988  0.15548077    -0.11880
C2226       C  0.05254406  0.78583842  0.18357772     0.02050
H2227       H  0.97415655  0.76917516  0.19106027     0.15030
H2228       H  0.07104370  0.81418572  0.14584683     0.15030
C2229       C  0.08443194  0.77990264  0.19717992     0.36690
C2230       C  0.96250631  0.79680869  0.13357404     0.36590
N2231       N  0.11031026  0.77578633  0.20755589    -0.43660
N2232       N  0.93814639  0.79754972  0.11948351    -0.43650
C2233       C  0.80162332  0.28320565  0.00971778    -0.00070
C2234       C  0.81981950  0.28885075  0.03790645    -0.11940
C2235       C  0.85207572  0.27751516  0.04171944     0.02170
C2236       C  0.86681467  0.25812372  0.01797526    -0.00150
C2237       C  0.84856947  0.25269124  0.98962583    -0.11880
C2238       C  0.81683916  0.26553832  0.98506018     0.02050
H2239       H  0.80886990  0.30257596  0.05698577     0.15030
H2240       H  0.86002945  0.24045817  0.96985849     0.15030
C2241       C  0.80087635  0.26164072  0.95418879     0.36690
C2242       C  0.87040190  0.28884710  0.06899267     0.36590
N2243       N  0.78816357  0.25870087  0.92934931    -0.43660
N2244       N  0.88477237  0.29890746  0.09060804    -0.43650
C2245       C  0.98233100  0.26112279  0.86420463    -0.00070
C2246       C  0.96779510  0.24141416  0.84124767    -0.11940
C2247       C  0.96062668  0.25296622  0.80947980     0.02170
C2248       C  0.97601417  0.28026691  0.79724065    -0.00150
C2249       C  0.98802218  0.30070026  0.82068334    -0.11880
C2250       C  0.98588805  0.29336614  0.85354728     0.02050
H2251       H  0.95759221  0.21946602  0.84929443     0.15030
H2252       H  0.99408746  0.32446695  0.81361265     0.15030
C2253       C  0.97384603  0.31959845  0.87257172     0.36690
C2254       C  0.93218792  0.24156912  0.79352078     0.36590
N2255       N  0.96153540  0.33920556  0.88794590    -0.43660
N2256       N  0.90869631  0.23298206  0.78151570    -0.43650
C2257       C  0.14336614  0.24174270  0.97077891    -0.00070
C2258       C  0.16822527  0.24807085  0.99355175    -0.11940
C2259       C  0.19323747  0.26817565  0.98780242     0.02170
C2260       C  0.20125227  0.27553564  0.95615004    -0.00150
C2261       C  0.17871410  0.26669678  0.93156455    -0.11880
C2262       C  0.14920532  0.25169425  0.93889927     0.02050
H2263       H  0.16866362  0.23817057  0.01738003     0.15030
H2264       H  0.18417704  0.27128688  0.90671777     0.15030
C2265       C  0.12655677  0.24485606  0.91335784     0.36690
C2266       C  0.21148368  0.27815317  0.01581435     0.36590
N2267       N  0.10826430  0.23912063  0.89295638    -0.43660
N2268       N  0.22448040  0.28512911  0.03956062    -0.43650
C2269       C  0.00572288  0.23283374  0.14755645    -0.00070
C2270       C  0.03242784  0.23108865  0.16943382    -0.11940
C2271       C  0.03374609  0.24900926  0.19772950     0.02170
C2272       C  0.00601230  0.26477688  0.20937328    -0.00150
C2273       C  0.97779274  0.26407688  0.18935576    -0.11880
C2274       C  0.97781806  0.24922514  0.15840290     0.02050
H2275       H  0.05415862  0.21799700  0.16277950     0.15030
H2276       H  0.95564898  0.27475077  0.19782348     0.15030
C2277       C  0.94883618  0.24990587  0.13882783     0.36690
C2278       C  0.06461849  0.25200620  0.21386504     0.36590
N2279       N  0.92548306  0.24964103  0.12318064    -0.43660
N2280       N  0.08947774  0.25507121  0.22630067    -0.43650
C2281       C  0.79736726  0.48605088  0.24617950    -0.00070
C2282       C  0.80730280  0.51754265  0.24697184    -0.11940
C2283       C  0.83745812  0.52568593  0.26011500     0.02170
C2284       C  0.86216349  0.50204259  0.26775447    -0.00150
C2285       C  0.85283247  0.46997399  0.26607554    -0.11880
C2286       C  0.82053551  0.46214531  0.25716247     0.02050
H2287       H  0.79051507  0.53640566  0.23878849     0.15030
H2288       H  0.87064969  0.45100776  0.27131282     0.15030
C2289       C  0.81175481  0.42934367  0.25935268     0.36690
C2290       C  0.84229406  0.55922642  0.26563969     0.36590
N2291       N  0.80472312  0.40299393  0.26145531    -0.43660
N2292       N  0.84607472  0.58608132  0.27006419    -0.43650
C2293       C  0.21185947  0.51960562  0.23442703    -0.00070
C2294       C  0.19466505  0.54927553  0.23749906    -0.11940
C2295       C  0.16289010  0.55125734  0.24959677     0.02170
C2296       C  0.14832598  0.52362700  0.26119252    -0.00150
C2297       C  0.16650045  0.49460690  0.25948854    -0.11880
C2298       C  0.19647460  0.49215249  0.24498660     0.02050
H2299       H  0.20589906  0.57091957  0.23019634     0.15030
H2300       H  0.15557710  0.47269131  0.26670796     0.15030
C2301       C  0.20948293  0.46042732  0.23909387     0.36690
C2302       C  0.14517042  0.58146810  0.24848338     0.36590
N2303       N  0.21830878  0.43443324  0.23422950    -0.43660
N2304       N  0.13084352  0.60568842  0.24752887    -0.43650
C2305       C  0.02390259  0.72131065  0.23608759    -0.00070
C2306       C  0.99263323  0.71077463  0.23865942    -0.11940
C2307       C  0.98649296  0.68057747  0.25153633     0.02170
C2308       C  0.01173113  0.65739594  0.25857441    -0.00150
C2309       C  0.04330748  0.66739422  0.25508256    -0.11880
C2310       C  0.04946466  0.69917941  0.24513889     0.02050
H2311       H  0.97261320  0.72740512  0.23319031     0.15030
H2312       H  0.06316767  0.65029641  0.25936771     0.15030
C2313       C  0.08234652  0.70827800  0.24424633     0.36690
C2314       C  0.95345479  0.67422665  0.25793331     0.36590
N2315       N  0.10899137  0.71492463  0.24392192    -0.43660
N2316       N  0.92701386  0.66919743  0.26312746    -0.43650
C2317       C  0.00406040  0.31013927  0.25498948    -0.00070
C2318       C  0.03219632  0.32343506  0.26743711    -0.11940
C2319       C  0.03227516  0.35437015  0.28046358     0.02170
C2320       C  0.00407322  0.37445432  0.28010810    -0.00150
C2321       C  0.97521923  0.36055065  0.27009649    -0.11880
C2322       C  0.97494468  0.32862979  0.25825993     0.02050
H2323       H  0.05455371  0.30940701  0.26691409     0.15030
H2324       H  0.95327691  0.37530305  0.26899071     0.15030
C2325       C  0.94455219  0.31601112  0.24854782     0.36690
C2326       C  0.06242308  0.36580704  0.29281565     0.36590
N2327       N  0.91993720  0.30612331  0.24105496    -0.43660
N2328       N  0.08652734  0.37494471  0.30285052    -0.43650
C2329       C  0.96652563  0.38145445  0.16467758    -0.00070
C2330       C  0.98073474  0.35755729  0.18465579    -0.11940
C2331       C  0.00274934  0.33683893  0.16997682     0.02170
C2332       C  0.99945611  0.33328938  0.13660857    -0.00150
C2333       C  0.97095752  0.34547038  0.12088200    -0.11880
C2334       C  0.95482134  0.37166527  0.13480594     0.02050
H2335       H  0.98580307  0.36384519  0.20921307     0.15030
H2336       H  0.96676050  0.34052782  0.09567767     0.15030
C2337       C  0.93613893  0.39422391  0.11526635     0.36690
C2338       C  0.03324817  0.32973081  0.18628797     0.36590
N2339       N  0.92246987  0.41436458  0.10083968    -0.43660
N2340       N  0.05827005  0.32510926  0.19851856    -0.43650
C2341       C  0.02571258  0.70649270  0.14884998    -0.00070
C2342       C  0.99681394  0.69766633  0.16106906    -0.11940
C2343       C  0.98690096  0.66742789  0.15350982     0.02170
C2344       C  0.00979194  0.64371860  0.14324212    -0.00150
C2345       C  0.04224474  0.65113676  0.14236773    -0.11880
C2346       C  0.05049474  0.68292648  0.14680731     0.02050
H2347       H  0.97861422  0.71605232  0.16597985     0.15030
H2348       H  0.06061772  0.63263049  0.13862321     0.15030
C2349       C  0.08343297  0.69183611  0.14531316     0.36690
C2350       C  0.95271309  0.66245428  0.15366517     0.36590
N2351       N  0.10973888  0.69952400  0.14445471    -0.43660
N2352       N  0.92540434  0.65851959  0.15361557    -0.43650
C2353       C  0.28385305  0.49127267  0.84884396    -0.00070
C2354       C  0.27164915  0.46149760  0.83959247    -0.11940
C2355       C  0.25998850  0.45596837  0.80734688     0.02170
C2356       C  0.25847307  0.48081669  0.78378602    -0.00150
C2357       C  0.26990210  0.51035541  0.79376726    -0.11880
C2358       C  0.28365107  0.51522036  0.82451957     0.02050
H2359       H  0.27016754  0.44291104  0.85762807     0.15030
H2360       H  0.26911912  0.53000847  0.77694782     0.15030
C2361       C  0.29722883  0.54592201  0.83060478     0.36690
C2362       C  0.24866817  0.42491505  0.79922176     0.36590
N2363       N  0.30814009  0.57047011  0.83543935    -0.43660
N2364       N  0.23940620  0.40003162  0.79268846    -0.43650
C2365       C  0.29539240  0.52754742  0.13362110    -0.00070
C2366       C  0.29782861  0.49916875  0.15207137    -0.11940
C2367       C  0.27899282  0.49442659  0.17923339     0.02170
C2368       C  0.26027284  0.51985906  0.19257123    -0.00150
C2369       C  0.26021933  0.54939700  0.17607756    -0.11880
C2370       C  0.27643363  0.55301302  0.14667532     0.02050
H2371       H  0.31058602  0.47857672  0.14214513     0.15030
H2372       H  0.24678464  0.56962888  0.18573941     0.15030
C2373       C  0.27054533  0.58216695  0.12857489     0.36690
C2374       C  0.27859674  0.46240463  0.19205834     0.36590
N2375       N  0.26537309  0.60551273  0.11405674    -0.43660
N2376       N  0.27913821  0.43640529  0.20161508    -0.43650
C2377       C  0.28168180  0.66018966  0.00293248    -0.00070
C2378       C  0.26613424  0.67829708  0.97774910    -0.11940
C2379       C  0.24945585  0.70756902  0.98224372     0.02170
C2380       C  0.25327909  0.72461606  0.01111639    -0.00150
C2381       C  0.27016381  0.70762195  0.03673364    -0.11880
C2382       C  0.28326393  0.67557867  0.03316535     0.02050
H2383       H  0.26638330  0.66937855  0.95341091     0.15030
H2384       H  0.27422707  0.71988486  0.05926342     0.15030
C2385       C  0.30012411  0.66020701  0.06002787     0.36690
C2386       C  0.22942953  0.71923630  0.95564183     0.36590
N2387       N  0.31397641  0.64811525  0.08160843    -0.43660
N2388       N  0.21301043  0.72640871  0.93368373    -0.43650
C2389       C  0.24719911  0.31831400  0.95641853    -0.00070
C2390       C  0.26210718  0.32520246  0.98627519    -0.11940
C2391       C  0.27455283  0.35509405  0.99380123     0.02170
C2392       C  0.27180110  0.38088499  0.97179557    -0.00150
C2393       C  0.25711902  0.37456899  0.94146134    -0.11880
C2394       C  0.24525214  0.34378697  0.93367548     0.02050
H2395       H  0.26450288  0.30703072  0.00436795     0.15030
H2396       H  0.25349986  0.39403195  0.92433704     0.15030
C2397       C  0.23015623  0.33916361  0.90256602     0.36690
C2398       C  0.28954184  0.35895183  0.02522648     0.36590
N2399       N  0.21785085  0.33544616  0.87765682    -0.43660
N2400       N  0.30159304  0.36201563  0.05036695    -0.43650
C2401       C  0.17407856  0.57493588  0.11620776    -0.00070
C2402       C  0.18175122  0.55233783  0.14027308    -0.11940
C2403       C  0.15770906  0.53217647  0.14895860     0.02170
C2404       C  0.12532639  0.54112289  0.14055481    -0.00150
C2405       C  0.11840067  0.57192457  0.12768583    -0.11880
C2406       C  0.14366692  0.58977904  0.11701173     0.02050
H2407       H  0.20635314  0.54346612  0.14315121     0.15030
H2408       H  0.09390040  0.58133904  0.12498091     0.15030
C2409       C  0.13902499  0.62222088  0.10604744     0.36690
C2410       C  0.16790378  0.50078101  0.16064978     0.36590
N2411       N  0.13692011  0.64874210  0.09819527    -0.43660
N2412       N  0.17660897  0.47554371  0.16934919    -0.43650
C2413       C  0.15870303  0.40243374  0.99372180    -0.00070
C2414       C  0.16043256  0.38594783  0.02344995    -0.11940
C2415       C  0.16747290  0.35338046  0.02474157     0.02170
C2416       C  0.16300762  0.33637075  0.99625476    -0.00150
C2417       C  0.16873338  0.35200013  0.96717059    -0.11880
C2418       C  0.16700184  0.38542918  0.96585443     0.02050
H2419       H  0.15813848  0.39887844  0.04587608     0.15030
H2420       H  0.17002307  0.33848181  0.94508543     0.15030
C2421       C  0.17770782  0.40109552  0.93755631     0.36690
C2422       C  0.16918819  0.33753501  0.05568879     0.36590
N2423       N  0.18827763  0.41281671  0.91524218    -0.43660
N2424       N  0.17044220  0.32489234  0.08050952    -0.43650
C2425       C  0.16255931  0.66298594  0.98082924    -0.00070
C2426       C  0.14476905  0.66536417  0.00869951    -0.11940
C2427       C  0.11230773  0.65961666  0.00635516     0.02170
C2428       C  0.09619833  0.66339310  0.97615136    -0.00150
C2429       C  0.11375904  0.66696656  0.94833093    -0.11880
C2430       C  0.14701821  0.66746720  0.95054203     0.02050
H2431       H  0.15699420  0.66282885  0.03204337     0.15030
H2432       H  0.10137201  0.67189200  0.92542411     0.15030
C2433       C  0.16464548  0.66915360  0.92128770     0.36690
C2434       C  0.09490856  0.65447776  0.03539904     0.36590
N2435       N  0.17864449  0.67032509  0.89773378    -0.43660
N2436       N  0.07990686  0.65057443  0.05795241    -0.43650
C2437       C  0.14951021  0.49052174  0.70616637    -0.00070
C2438       C  0.17086051  0.51565424  0.71107242    -0.11940
C2439       C  0.20080977  0.51163745  0.72740373     0.02170
C2440       C  0.21433642  0.48084093  0.73478218    -0.00150
C2441       C  0.19459159  0.45477296  0.72696886    -0.11880
C2442       C  0.16215056  0.45949185  0.71444277     0.02050
H2443       H  0.16246740  0.53990457  0.70524071     0.15030
H2444       H  0.20391073  0.43074790  0.73215775     0.15030
C2445       C  0.14195597  0.43250496  0.71181615     0.36690
C2446       C  0.21661656  0.54039125  0.73650814     0.36590
N2447       N  0.12566013  0.41084371  0.70977907    -0.43660
N2448       N  0.22846678  0.56413539  0.74296473    -0.43650
C2449       C  0.98056519  0.32440664  0.75066024    -0.00070
C2450       C  0.95346376  0.33926283  0.73529720    -0.11940
C2451       C  0.95555279  0.36710294  0.71633714     0.02170
C2452       C  0.98447774  0.38395298  0.71493446    -0.00150
C2453       C  0.01158241  0.36980783  0.73110399    -0.11880
C2454       C  0.01011673  0.34018115  0.74784329     0.02050
H2455       H  0.93072769  0.32763738  0.73615994     0.15030
H2456       H  0.03371785  0.38254492  0.73185539     0.15030
C2457       C  0.03983579  0.32636135  0.76084511     0.36690
C2458       C  0.92667067  0.37929629  0.69975376     0.36590
N2459       N  0.06457568  0.31614288  0.77012219    -0.43660
N2460       N  0.90357005  0.38906970  0.68642611    -0.43650
C2461       C  0.01922540  0.66229967  0.73565148    -0.00070
C2462       C  0.99090071  0.68142266  0.73083869    -0.11940
C2463       C  0.99028985  0.71467855  0.73781510     0.02170
C2464       C  0.01806125  0.72922483  0.75058380    -0.00150
C2465       C  0.04593586  0.71011104  0.75516735    -0.11880
C2466       C  0.04723890  0.67782428  0.74682481     0.02050
H2467       H  0.96910681  0.67035389  0.72263747     0.15030
H2468       H  0.06748135  0.72073485  0.76445799     0.15030
C2469       C  0.07844494  0.66156707  0.74966680     0.36690
C2470       C  0.96072500  0.73321304  0.73266552     0.36590
N2471       N  0.10349423  0.64873672  0.75203751    -0.43660
N2472       N  0.93701500  0.74813347  0.72850507    -0.43650
C2473       C  0.80433436  0.56355063  0.75707143    -0.00070
C2474       C  0.82381089  0.59012508  0.75337174    -0.11940
C2475       C  0.85608739  0.58659678  0.74313954     0.02170
C2476       C  0.86943625  0.55626470  0.73471162    -0.00150
C2477       C  0.84908419  0.53023903  0.73659806    -0.11880
C2478       C  0.81787130  0.53329014  0.74866905     0.02050
H2479       H  0.81410757  0.61364792  0.75935180     0.15030
H2480       H  0.85899173  0.50644583  0.73185922     0.15030
C2481       C  0.80144023  0.50426681  0.75454463     0.36690
C2482       C  0.87577562  0.61411145  0.74334899     0.36590
N2483       N  0.78887313  0.48062793  0.75929236    -0.43660
N2484       N  0.89168071  0.63612836  0.74351548    -0.43650
C2485       C  0.17245949  0.49378416  0.86291494    -0.00070
C2486       C  0.16002726  0.46422805  0.87136393    -0.11940
C2487       C  0.15603538  0.44112598  0.84757878     0.02170
C2488       C  0.15789101  0.45166137  0.81570066    -0.00150
C2489       C  0.18232615  0.47238830  0.81034171    -0.11880
C2490       C  0.18535103  0.49732657  0.83201229     0.02050
H2491       H  0.15195924  0.45994306  0.89544537     0.15030
H2492       H  0.18840317  0.47677264  0.78613100     0.15030
C2493       C  0.19514878  0.52757067  0.81960597     0.36690
C2494       C  0.14032664  0.41209420  0.85486799     0.36590
N2495       N  0.20244534  0.55207018  0.80984885    -0.43660
N2496       N  0.12776359  0.38877405  0.86082669    -0.43650
C2497       C  0.04495325  0.36247407  0.89511988    -0.00070
C2498       C  0.01736524  0.38235107  0.89137242    -0.11940
C2499       C  0.00345656  0.38769475  0.86125198     0.02170
C2500       C  0.02055575  0.37793332  0.83399927    -0.00150
C2501       C  0.04813114  0.35782515  0.83780833    -0.11880
C2502       C  0.05984281  0.34918391  0.86831762     0.02050
H2503       H  0.00470548  0.39080718  0.91232904     0.15030
H2504       H  0.06278651  0.35241901  0.81745988     0.15030
C2505       C  0.08796294  0.32810573  0.87171857     0.36690
C2506       C  0.97350971  0.40636228  0.85898661     0.36590
N2507       N  0.11077998  0.31158742  0.87435026    -0.43660
N2508       N  0.94953660  0.42123209  0.85727285    -0.43650
C2509       C  0.99084718  0.65166810  0.91182639    -0.00070
C2510       C  0.99980949  0.62136757  0.92415712    -0.11940
C2511       C  0.02404882  0.60301601  0.91084887     0.02170
C2512       C  0.03673180  0.61252076  0.88141719    -0.00150
C2513       C  0.02706792  0.64222916  0.86794137    -0.11880
C2514       C  0.00461741  0.66214955  0.88311868     0.02050
H2515       H  0.98900627  0.61224830  0.94548524     0.15030
H2516       H  0.03634134  0.64967437  0.84514939     0.15030
C2517       C  0.99629878  0.69254234  0.86805857     0.36690
C2518       C  0.03503802  0.57440110  0.92818454     0.36590
N2519       N  0.99027816  0.71650698  0.85489497    -0.43660
N2520       N  0.04351610  0.55151403  0.94218296    -0.43650
C2521       C  0.73534223  0.39474980  0.99509930    -0.00070
C2522       C  0.73159178  0.37947744  0.02504792    -0.11940
C2523       C  0.74138803  0.34670835  0.03024622     0.02170
C2524       C  0.75592070  0.32831002  0.00551867    -0.00150
C2525       C  0.75967348  0.34367792  0.97595731    -0.11880
C2526       C  0.74878685  0.37557208  0.97026517     0.02050
H2527       H  0.72205884  0.39332689  0.04476764     0.15030
H2528       H  0.77027305  0.33015857  0.95652735     0.15030
C2529       C  0.75100813  0.38764089  0.93786086     0.36690
C2530       C  0.73812921  0.33305906  0.06178875     0.36590
N2531       N  0.75265500  0.39714750  0.91182330    -0.43660
N2532       N  0.73566967  0.32218312  0.08717551    -0.43650
C2533       C  0.73588190  0.67418575  0.01789023    -0.00070
C2534       C  0.73293226  0.69399662  0.04500178    -0.11940
C2535       C  0.74891638  0.72273065  0.04805124     0.02170
C2536       C  0.76680689  0.73455406  0.02258197    -0.00150
C2537       C  0.76997213  0.71498093  0.99513199    -0.11880
C2538       C  0.75495914  0.68505223  0.99276381     0.02050
H2539       H  0.71984890  0.68561967  0.06536736     0.15030
H2540       H  0.78342496  0.72344699  0.97512674     0.15030
C2541       C  0.75985234  0.66565301  0.96469215     0.36690
C2542       C  0.74681288  0.73954639  0.07814786     0.36590
N2543       N  0.76360417  0.65006508  0.94212977    -0.43660
N2544       N  0.74476089  0.75274567  0.10239955    -0.43650
C2545       C  0.70983403  0.49457884  0.14483005    -0.00070
C2546       C  0.72883168  0.46637471  0.15147383    -0.11940
C2547       C  0.74415726  0.46031193  0.18245763     0.02170
C2548       C  0.74433643  0.48423709  0.20679918    -0.00150
C2549       C  0.72468440  0.51171333  0.20010481    -0.11880
C2550       C  0.70584243  0.51554838  0.17143196     0.02050
H2551       H  0.73337915  0.44987240  0.13201846     0.15030
H2552       H  0.72368999  0.53055508  0.21780316     0.15030
C2553       C  0.68515383  0.54396446  0.16831930     0.36690
C2554       C  0.76154269  0.43027079  0.18767075     0.36590
N2555       N  0.66862939  0.56674134  0.16590712    -0.43660
N2556       N  0.77549959  0.40605017  0.19130798    -0.43650
C2557       C  0.73264409  0.56508759  0.86595886    -0.00070
C2558       C  0.73697953  0.59465067  0.85040640    -0.11940
C2559       C  0.74945691  0.59632842  0.81878891     0.02170
C2560       C  0.76048017  0.56836071  0.80260872    -0.00150
C2561       C  0.75702173  0.53918164  0.81867180    -0.11880
C2562       C  0.74175502  0.53724394  0.84839870     0.02050
H2563       H  0.73187008  0.61653438  0.86337979     0.15030
H2564       H  0.76450969  0.51726303  0.80700078     0.15030
C2565       C  0.73682346  0.50573556  0.86123218     0.36690
C2566       C  0.75183082  0.62714820  0.80372976     0.36590
N2567       N  0.73281975  0.48049584  0.87141830    -0.43660
N2568       N  0.75380648  0.65184266  0.79152989    -0.43650
C2569       C  0.92412398  0.55553735  0.87885389    -0.00070
C2570       C  0.93444518  0.56987453  0.90763590    -0.11940
C2571       C  0.91200906  0.58465412  0.92751524     0.02170
C2572       C  0.87938608  0.58445125  0.91829835    -0.00150
C2573       C  0.87130673  0.58022612  0.88592861    -0.11880
C2574       C  0.89216110  0.56223339  0.86722612     0.02050
H2575       H  0.95916200  0.56711125  0.91610154     0.15030
H2576       H  0.84648895  0.58380782  0.87770400     0.15030
C2577       C  0.87739387  0.54698850  0.83986913     0.36690
C2578       C  0.92223740  0.59679613  0.95834996     0.36590
N2579       N  0.86293560  0.53490607  0.81949248    -0.43660
N2580       N  0.93024964  0.60680915  0.98303674    -0.43650
C2581       C  0.87088792  0.48062572  0.15855909    -0.00070
C2582       C  0.87028685  0.44862406  0.14909124    -0.11940
C2583       C  0.84057370  0.43621121  0.14101562     0.02170
C2584       C  0.81398277  0.45771118  0.14039607    -0.00150
C2585       C  0.81404072  0.47999988  0.16538932    -0.11880
C2586       C  0.84246814  0.49571666  0.17000219     0.02050
H2587       H  0.89222000  0.43467209  0.14635079     0.15030
H2588       H  0.79236205  0.49405087  0.16965492     0.15030
C2589       C  0.84000820  0.52916742  0.17852725     0.36690
C2590       C  0.83855427  0.40456949  0.12816154     0.36590
N2591       N  0.83759353  0.55607580  0.18455819    -0.43660
N2592       N  0.83723908  0.37881023  0.11850109    -0.43650
C2593       C  0.91881546  0.39549349  0.03402571    -0.00070
C2594       C  0.88960323  0.38571104  0.04630687    -0.11940
C2595       C  0.86190285  0.38733192  0.02728631     0.02170
C2596       C  0.86222705  0.40365013  0.99807844    -0.00150
C2597       C  0.89123137  0.40958973  0.98378540    -0.11880
C2598       C  0.91929728  0.40842499  0.00257146     0.02050
H2599       H  0.88933724  0.37268674  0.06891325     0.15030
H2600       H  0.89107782  0.42115297  0.96035626     0.15030
C2601       C  0.94857948  0.41769027  0.98800149     0.36690
C2602       C  0.83214952  0.37764091  0.04042258     0.36590
N2603       N  0.97189140  0.42507820  0.97604686    -0.43660
N2604       N  0.80830755  0.37017798  0.05117706    -0.43650
C2605       C  0.86433390  0.71989456  0.04476163    -0.00070
C2606       C  0.85422510  0.70272344  0.01770261    -0.11940
C2607       C  0.84817564  0.67046897  0.02081344     0.02170
C2608       C  0.84987332  0.65635580  0.05160047    -0.00150
C2609       C  0.85249787  0.67550468  0.07889130    -0.11880
C2610       C  0.85955522  0.70749354  0.07568549     0.02050
H2611       H  0.85611478  0.71276691  0.99377963     0.15030
H2612       H  0.85125575  0.66495483  0.10267329     0.15030
C2613       C  0.86742593  0.72534566  0.10424427     0.36690
C2614       C  0.84161543  0.65239791  0.99211628     0.36590
N2615       N  0.87395887  0.73952495  0.12714727    -0.43660
N2616       N  0.83638114  0.63834029  0.96883024    -0.43650
C2617       C  0.22822569  0.49634519  0.63027872    -0.00070
C2618       C  0.23890116  0.46475220  0.63831520    -0.11940
C2619       C  0.25500251  0.45750036  0.66861030     0.02170
C2620       C  0.26393141  0.48222104  0.69013173    -0.00150
C2621       C  0.25569948  0.51346031  0.68034771    -0.11880
C2622       C  0.23522104  0.52014453  0.65365615     0.02050
H2623       H  0.23434682  0.44576666  0.62141429     0.15030
H2624       H  0.26208845  0.53293850  0.69579252     0.15030
C2625       C  0.22044674  0.55199658  0.65216128     0.36690
C2626       C  0.26247711  0.42462511  0.67706026     0.36590
N2627       N  0.20862906  0.57745469  0.65126141    -0.43660
N2628       N  0.26847403  0.39821063  0.68387426    -0.43650
C2629       C  0.23130343  0.51057015  0.34921284    -0.00070
C2630       C  0.24029172  0.48223001  0.33305701    -0.11940
C2631       C  0.25463393  0.48248298  0.30294772     0.02170
C2632       C  0.25819854  0.51154638  0.28639136    -0.00150
C2633       C  0.24716602  0.53994904  0.30141671    -0.11880
C2634       C  0.23452675  0.53967488  0.33267543     0.02050
H2635       H  0.23882194  0.45953474  0.34551624     0.15030
H2636       H  0.24918367  0.56253429  0.28898017     0.15030
C2637       C  0.22695373  0.56953959  0.34807423     0.36690
C2638       C  0.26657942  0.45235915  0.29059702     0.36590
N2639       N  0.22086748  0.59350442  0.36054301    -0.43660
N2640       N  0.27603994  0.42774671  0.28161504    -0.43650
C2641       C  0.23325785  0.65907730  0.46866428    -0.00070
C2642       C  0.24675541  0.67540691  0.49530817    -0.11940
C2643       C  0.26792929  0.70038973  0.49242236     0.02170
C2644       C  0.26913180  0.71770830  0.46358771    -0.00150
C2645       C  0.25207961  0.70473572  0.43670618    -0.11880
C2646       C  0.23580186  0.67499406  0.43867463     0.02050
H2647       H  0.24167360  0.66810010  0.51951181     0.15030
H2648       H  0.25117885  0.71794276  0.41422526     0.15030
C2649       C  0.21890990  0.66366387  0.41067045     0.36690
C2650       C  0.28767230  0.70784261  0.52021493     0.36590
N2651       N  0.20472522  0.65533542  0.38814952    -0.43660
N2652       N  0.30335804  0.71282131  0.54290427    -0.43650
C2653       C  0.21587416  0.37574883  0.49577955    -0.00070
C2654       C  0.23203529  0.36200602  0.52303176    -0.11940
C2655       C  0.24641366  0.33075443  0.52276532     0.02170
C2656       C  0.24549789  0.31173928  0.49462105    -0.00150
C2657       C  0.22817690  0.32489799  0.46776832    -0.11880
C2658       C  0.21357407  0.35605153  0.46820333     0.02050
H2659       H  0.23574247  0.37678838  0.54403716     0.15030
H2660       H  0.22610452  0.31071809  0.44614491     0.15030
C2661       C  0.19811974  0.36837627  0.43899066     0.36690
C2662       C  0.26186739  0.31899085  0.55210652     0.36590
N2663       N  0.18571078  0.37825984  0.41556402    -0.43660
N2664       N  0.27366461  0.31010600  0.57619630    -0.43650
C2665       C  0.51493152  0.66661642  0.75624409    -0.00070
C2666       C  0.54668161  0.67605237  0.76293415    -0.11940
C2667       C  0.55629282  0.70807294  0.75707530     0.02170
C2668       C  0.53465241  0.73169496  0.74289690    -0.00150
C2669       C  0.50341694  0.72196059  0.73595258    -0.11880
C2670       C  0.49318093  0.69108126  0.74369463     0.02050
H2671       H  0.56425359  0.65835347  0.77221310     0.15030
H2672       H  0.48612676  0.73934164  0.72554696     0.15030
C2673       C  0.45926559  0.68599077  0.73974999     0.36690
C2674       C  0.58892840  0.71593514  0.76479433     0.36590
N2675       N  0.43202466  0.68216781  0.73663287    -0.43660
N2676       N  0.61513851  0.72233449  0.77089006    -0.43650
C2677       C  0.64949153  0.55513308  0.78403929    -0.00070
C2678       C  0.65626378  0.58337699  0.76736631    -0.11940
C2679       C  0.68676779  0.58742521  0.75366108     0.02170
C2680       C  0.71064729  0.56228200  0.75473524    -0.00150
C2681       C  0.70317854  0.53397440  0.77037179    -0.11880
C2682       C  0.67448576  0.53113189  0.78666268     0.02050
H2683       H  0.63725752  0.60148049  0.76339367     0.15030
H2684       H  0.72055422  0.51405574  0.77082718     0.15030
C2685       C  0.67013184  0.50165326  0.80395659     0.36690
C2686       C  0.69236839  0.61705761  0.73747819     0.36590
N2687       N  0.66666302  0.47801803  0.81770309    -0.43660
N2688       N  0.69635532  0.64102201  0.72454115    -0.43650
C2689       C  0.37077492  0.49981881  0.76636962    -0.00070
C2690       C  0.36194154  0.46767675  0.76318723    -0.11940
C2691       C  0.33084472  0.45962903  0.75063500     0.02170
C2692       C  0.30870096  0.48344776  0.73766724    -0.00150
C2693       C  0.31788728  0.51521170  0.74083867    -0.11880
C2694       C  0.34669902  0.52336195  0.75681666     0.02050
H2695       H  0.37955430  0.44878119  0.76936322     0.15030
H2696       H  0.30144283  0.53433769  0.73270851     0.15030
C2697       C  0.35160818  0.55694365  0.76201898     0.36690
C2698       C  0.32247417  0.42660434  0.75040745     0.36590
N2699       N  0.35552840  0.58381924  0.76614411    -0.43660
N2700       N  0.31573744  0.40007997  0.75028797    -0.43650
C2701       C  0.51183328  0.38584383  0.77194911    -0.00070
C2702       C  0.53737560  0.36343514  0.77801074    -0.11940
C2703       C  0.53784959  0.33262382  0.76471246     0.02170
C2704       C  0.51179107  0.32260137  0.74529539    -0.00150
C2705       C  0.48580153  0.34475811  0.73953401    -0.11880
C2706       C  0.48570325  0.37604326  0.75246422     0.02050
H2707       H  0.55842413  0.37093315  0.79147002     0.15030
H2708       H  0.46562148  0.33770589  0.72454571     0.15030
C2709       C  0.45962521  0.39830108  0.74366064     0.36690
C2710       C  0.56665952  0.31282344  0.76956008     0.36590
N2711       N  0.43879387  0.41623868  0.73651974    -0.43660
N2712       N  0.59009105  0.29742320  0.77360877    -0.43650
C2713       C  0.39759423  0.48653418  0.64227047    -0.00070
C2714       C  0.39646921  0.51766147  0.62913442    -0.11940
C2715       C  0.36983251  0.53783098  0.63377895     0.02170
C2716       C  0.34052772  0.52388054  0.63942900    -0.00150
C2717       C  0.34112145  0.49378386  0.65403643    -0.11880
C2718       C  0.36971668  0.47542567  0.65654399     0.02050
H2719       H  0.41820068  0.52806627  0.62082989     0.15030
H2720       H  0.31893328  0.48328103  0.66037767     0.15030
C2721       C  0.37048772  0.44739424  0.67678188     0.36690
C2722       C  0.37116705  0.57097733  0.62453789     0.36590
N2723       N  0.37062089  0.42556317  0.69390629    -0.43660
N2724       N  0.37296222  0.59751841  0.61732257    -0.43650
C2725       C  0.78566012  0.66775535  0.52505924    -0.00070
C2726       C  0.77708810  0.67898776  0.55586940    -0.11940
C2727       C  0.76789473  0.71201793  0.56117565     0.02170
C2728       C  0.76483186  0.73447963  0.53526320    -0.00150
C2729       C  0.77170151  0.72249491  0.50485812    -0.11880
C2730       C  0.78419885  0.69137448  0.49995782     0.02050
H2731       H  0.77725243  0.66214872  0.57572035     0.15030
H2732       H  0.76894328  0.73819811  0.48434618     0.15030
C2733       C  0.79381907  0.68445423  0.46748765     0.36690
C2734       C  0.76052159  0.72218075  0.59321367     0.36590
N2735       N  0.80026480  0.67838963  0.44128859    -0.43660
N2736       N  0.75438262  0.73041643  0.61888576    -0.43650
C2737       C  0.76351379  0.53993213  0.64311683    -0.00070
C2738       C  0.76588593  0.57180896  0.65334009    -0.11940
C2739       C  0.76109719  0.58055498  0.68588538     0.02170
C2740       C  0.75275392  0.55749466  0.70896316    -0.00150
C2741       C  0.75263869  0.52549006  0.69899006    -0.11880
C2742       C  0.75806309  0.51663089  0.66687493     0.02050
H2743       H  0.76985069  0.59019384  0.63562970     0.15030
H2744       H  0.74658033  0.50727550  0.71607050     0.15030
C2745       C  0.75628082  0.48332494  0.65851676     0.36690
C2746       C  0.76428425  0.61346245  0.69483997     0.36590
N2747       N  0.75486177  0.45663683  0.65181733    -0.43660
N2748       N  0.76722788  0.63986853  0.70195014    -0.43650
C2749       C  0.75276257  0.39014600  0.50528830    -0.00070
C2750       C  0.76343114  0.37457701  0.53392344    -0.11940
C2751       C  0.75620422  0.34245824  0.54025699     0.02170
C2752       C  0.73817923  0.32478326  0.51751860    -0.00150
C2753       C  0.72664913  0.34080297  0.48949526    -0.11880
C2754       C  0.73397052  0.37270721  0.48316077     0.02050
H2755       H  0.77583227  0.38810154  0.55226620     0.15030
H2756       H  0.71275021  0.32788874  0.47177772     0.15030
C2757       C  0.72103802  0.38749243  0.45389146     0.36690
C2758       C  0.76634550  0.32863576  0.57088661     0.36590
N2759       N  0.71058675  0.39928764  0.43044636    -0.43660
N2760       N  0.77444667  0.31766641  0.59552916    -0.43650
C2761       C  0.77967950  0.49993321  0.36546380    -0.00070
C2762       C  0.77714469  0.52390980  0.34139419    -0.11940
C2763       C  0.76386421  0.51871329  0.31072056     0.02170
C2764       C  0.75568324  0.48774309  0.30107944    -0.00150
C2765       C  0.76010913  0.46284689  0.32417103    -0.11880
C2766       C  0.77146897  0.46876844  0.35621543     0.02050
H2767       H  0.78345703  0.54811716  0.34724175     0.15030
H2768       H  0.75386980  0.43887621  0.31742483     0.15030
C2769       C  0.77367745  0.44282425  0.37909732     0.36690
C2770       C  0.75683339  0.54658798  0.29081359     0.36590
N2771       N  0.77559637  0.42187466  0.39736859    -0.43660
N2772       N  0.75105263  0.56936042  0.27551602    -0.43650
C2773       C  0.63061624  0.58363972  0.66228281    -0.00070
C2774       C  0.61517953  0.60869564  0.64473714    -0.11940
C2775       C  0.62464727  0.61421554  0.61360003     0.02170
C2776       C  0.65373956  0.59976662  0.60434227    -0.00150
C2777       C  0.67559672  0.58762708  0.62834735    -0.11880
C2778       C  0.66289381  0.57574351  0.65641300     0.02050
H2779       H  0.59100346  0.61548314  0.65010298     0.15030
H2780       H  0.69902418  0.57839748  0.62139971     0.15030
C2781       C  0.67789518  0.54736776  0.67080880     0.36690
C2782       C  0.60029792  0.62531413  0.59033210     0.36590
N2783       N  0.68683077  0.52313303  0.68183452    -0.43660
N2784       N  0.58021962  0.63316096  0.57184566    -0.43650
C2785       C  0.72664713  0.78845510  0.53182989    -0.00070
C2786       C  0.70686581  0.79985349  0.55697126    -0.11940
C2787       C  0.67604695  0.81520777  0.55047932     0.02170
C2788       C  0.66462684  0.82079531  0.51846005    -0.00150
C2789       C  0.68700107  0.81480681  0.49422359    -0.11880
C2790       C  0.71684747  0.79851668  0.50024739     0.02050
H2791       H  0.71433722  0.79464080  0.58163811     0.15030
H2792       H  0.67940037  0.81947460  0.46941406     0.15030
C2793       C  0.73646488  0.79226502  0.47282025     0.36690
C2794       C  0.65610643  0.82402629  0.57689420     0.36590
N2795       N  0.75157019  0.78793087  0.45024259    -0.43660
N2796       N  0.64039525  0.83189869  0.59811826    -0.43650
C2797       C  0.54055601  0.81637502  0.64329143    -0.00070
C2798       C  0.51707929  0.82296872  0.66640091    -0.11940
C2799       C  0.51584995  0.80589497  0.69565501     0.02170
C2800       C  0.54026445  0.78287111  0.70498505    -0.00150
C2801       C  0.56514837  0.77748456  0.68291521    -0.11880
C2802       C  0.56507085  0.79322660  0.65226200     0.02050
H2803       H  0.49739729  0.83977685  0.66013944     0.15030
H2804       H  0.58427535  0.76013379  0.68920176     0.15030
C2805       C  0.58792528  0.78210699  0.62916009     0.36690
C2806       C  0.48844744  0.81238232  0.71527414     0.36590
N2807       N  0.60591434  0.77239203  0.61060848    -0.43660
N2808       N  0.46620457  0.81837122  0.73040850    -0.43650
C2809       C  0.38144190  0.78476438  0.47867156    -0.00070
C2810       C  0.37070092  0.77413306  0.44798435    -0.11940
C2811       C  0.33894983  0.76229020  0.44263352     0.02170
C2812       C  0.31724835  0.75934607  0.46825964    -0.00150
C2813       C  0.32879988  0.76891672  0.49856136    -0.11880
C2814       C  0.35882924  0.78262158  0.50362351     0.02050
H2815       H  0.38704293  0.77463588  0.42826009     0.15030
H2816       H  0.31314806  0.76755636  0.51864132     0.15030
C2817       C  0.36496712  0.79566909  0.53521918     0.36690
C2818       C  0.32906489  0.75325503  0.41062747     0.36590
N2819       N  0.36963466  0.80620171  0.56050573    -0.43660
N2820       N  0.32101373  0.74591174  0.38495792    -0.43650
C2821       C  0.51719018  0.75736356  0.29976288    -0.00070
C2822       C  0.49035880  0.75512070  0.31939809    -0.11940
C2823       C  0.49089344  0.76628351  0.35149658     0.02170
C2824       C  0.51865271  0.78001060  0.36486788    -0.00150
C2825       C  0.54535401  0.78222731  0.34510193    -0.11880
C2826       C  0.54487004  0.77115610  0.31315406     0.02050
H2827       H  0.46890285  0.74452186  0.30964388     0.15030
H2828       H  0.56749037  0.79107554  0.35533216     0.15030
C2829       C  0.57374770  0.77273800  0.29505572     0.36690
C2830       C  0.46327803  0.76197151  0.37089628     0.36590
N2831       N  0.59694793  0.77390149  0.28058347    -0.43660
N2832       N  0.44119684  0.75861182  0.38658868    -0.43650
C2833       C  0.40766193  0.67030841  0.52659529    -0.00070
C2834       C  0.38702334  0.66337640  0.55113741    -0.11940
C2835       C  0.35654544  0.65353545  0.54374936     0.02170
C2836       C  0.34748066  0.64928605  0.51118900    -0.00150
C2837       C  0.36689051  0.65932835  0.48666781    -0.11880
C2838       C  0.39682827  0.67081158  0.49430371     0.02050
H2839       H  0.39464129  0.66612308  0.57608141     0.15030
H2840       H  0.35932045  0.65663826  0.46167840     0.15030
C2841       C  0.41486071  0.68472603  0.46913629     0.36690
C2842       C  0.33586154  0.64675917  0.56999807     0.36590
N2843       N  0.42844633  0.69682320  0.44886745    -0.43660
N2844       N  0.31908285  0.64182788  0.59097649    -0.43650
C2845       C  0.52406975  0.70712197  0.66619478    -0.00070
C2846       C  0.49124711  0.70094663  0.66458987    -0.11940
C2847       C  0.48246216  0.67133178  0.65317924     0.02170
C2848       C  0.50621861  0.64651304  0.65152401    -0.00150
C2849       C  0.53586977  0.65074991  0.66736940    -0.11880
C2850       C  0.54538138  0.68147873  0.67455523     0.02050
H2851       H  0.47347969  0.72056202  0.66398469     0.15030
H2852       H  0.55086409  0.63034082  0.67448753     0.15030
C2853       C  0.57865783  0.68661832  0.68252486     0.36690
C2854       C  0.44937720  0.66705578  0.64349732     0.36590
N2855       N  0.60543058  0.69069930  0.68860333    -0.43660
N2856       N  0.42281254  0.66358773  0.63603832    -0.43650
C2857       C  0.69454306  0.67802926  0.52246529    -0.00070
C2858       C  0.69036695  0.66465977  0.55328656    -0.11940
C2859       C  0.67837490  0.68459115  0.57745997     0.02170
C2860       C  0.66759124  0.71523755  0.56835851    -0.00150
C2861       C  0.68570531  0.72978987  0.54488184    -0.11880
C2862       C  0.69498913  0.71108279  0.51886293     0.02050
H2863       H  0.69386781  0.63921906  0.55748786     0.15030
H2864       H  0.67837464  0.75375474  0.53852983     0.15030
C2865       C  0.69620057  0.72520639  0.48712867     0.36690
C2866       C  0.67448098  0.67371678  0.60987439     0.36590
N2867       N  0.69642369  0.73514461  0.46114732    -0.43660
N2868       N  0.67179720  0.66611754  0.63640482    -0.43650
C2869       C  0.70588678  0.48210257  0.26259675    -0.00070
C2870       C  0.68801748  0.51110297  0.26571440    -0.11940
C2871       C  0.65571089  0.51430791  0.25529951     0.02170
C2872       C  0.63985593  0.48802993  0.24253663    -0.00150
C2873       C  0.65719471  0.45865393  0.24049568    -0.11880
C2874       C  0.68987371  0.45561100  0.25001362     0.02050
H2875       H  0.69935647  0.53181974  0.27524930     0.15030
H2876       H  0.64482022  0.43769763  0.23252248     0.15030
C2877       C  0.70625907  0.42478167  0.24778876     0.36690
C2878       C  0.63863359  0.54447420  0.25928766     0.36590
N2879       N  0.71933756  0.39999869  0.24617610    -0.43660
N2880       N  0.62445612  0.56842928  0.26246149    -0.43650
C2881       C  0.36539877  0.51275388  0.21329044    -0.00070
C2882       C  0.34503814  0.54052756  0.21491050    -0.11940
C2883       C  0.31706825  0.54160984  0.23255063     0.02170
C2884       C  0.30516458  0.51342729  0.24518616    -0.00150
C2885       C  0.32524261  0.48538439  0.24416092    -0.11880
C2886       C  0.35537245  0.48501723  0.22900050     0.02050
H2887       H  0.35208193  0.56262127  0.20393200     0.15030
H2888       H  0.31708640  0.46339792  0.25400936     0.15030
C2889       C  0.37524989  0.45608632  0.23001062     0.36690
C2890       C  0.30045888  0.57212003  0.23695390     0.36590
N2891       N  0.39107905  0.43276585  0.23096279    -0.43660
N2892       N  0.28722809  0.59655723  0.24064603    -0.43650
C2893       C  0.49142780  0.30913782  0.24368256    -0.00070
C2894       C  0.51904888  0.32253571  0.23140499    -0.11940
C2895       C  0.51822370  0.35335720  0.21742881     0.02170
C2896       C  0.48947322  0.37252296  0.21585015    -0.00150
C2897       C  0.46154063  0.35850780  0.22684630    -0.11880
C2898       C  0.46230438  0.32750456  0.24063949     0.02050
H2899       H  0.54159902  0.30885205  0.23278337     0.15030
H2900       H  0.43952820  0.37310840  0.22768931     0.15030
C2901       C  0.43306128  0.31574550  0.25302838     0.36690
C2902       C  0.54808229  0.36622422  0.20773209     0.36590
N2903       N  0.40951467  0.30654089  0.26303416    -0.43660
N2904       N  0.57203946  0.37657387  0.20008510    -0.43650
C2905       C  0.53015368  0.65285912  0.22174869    -0.00070
C2906       C  0.50181120  0.67235724  0.21664240    -0.11940
C2907       C  0.49461736  0.69905700  0.23572801     0.02170
C2908       C  0.51873044  0.71302547  0.25468139    -0.00150
C2909       C  0.54854522  0.69571976  0.25785466    -0.11880
C2910       C  0.55372223  0.66533093  0.24297951     0.02050
H2911       H  0.48253643  0.66348236  0.20146758     0.15030
H2912       H  0.56776301  0.70578651  0.27210245     0.15030
C2913       C  0.58332637  0.64770265  0.25004259     0.36690
C2914       C  0.46167970  0.71091565  0.23662006     0.36590
N2915       N  0.60762127  0.63444466  0.25593995    -0.43660
N2916       N  0.43513793  0.71986963  0.23771882    -0.43650
C2917       C  0.34477152  0.56615977  0.32056635    -0.00070
C2918       C  0.32699109  0.53928783  0.32466510    -0.11940
C2919       C  0.32970875  0.52398426  0.35431726     0.02170
C2920       C  0.34115564  0.54113156  0.38148460    -0.00150
C2921       C  0.34755006  0.57360605  0.37787317    -0.11880
C2922       C  0.34821875  0.58667130  0.34690210     0.02050
H2923       H  0.32178070  0.52490246  0.30389693     0.15030
H2924       H  0.35381628  0.58800300  0.39850192     0.15030
C2925       C  0.35988673  0.61824796  0.34240564     0.36690
C2926       C  0.32652825  0.48972287  0.35423829     0.36590
N2927       N  0.36922693  0.64360068  0.33870723    -0.43660
N2928       N  0.32461235  0.46225070  0.35354070    -0.43650
C2929       C  0.52343412  0.65415140  0.41426310    -0.00070
C2930       C  0.49331514  0.66723070  0.40440497    -0.11940
C2931       C  0.48284613  0.66503462  0.37240121     0.02170
C2932       C  0.50241700  0.64890165  0.35053847    -0.00150
C2933       C  0.53453168  0.64151486  0.35897589    -0.11880
C2934       C  0.54483161  0.64275557  0.39103185     0.02050
H2935       H  0.47860501  0.67982222  0.42146834     0.15030
H2936       H  0.54996465  0.63042314  0.34142857     0.15030
C2937       C  0.57708018  0.63153260  0.39999303     0.36690
C2938       C  0.45136257  0.67755774  0.36250862     0.36590
N2939       N  0.60273961  0.62258915  0.40781855    -0.43660
N2940       N  0.42634452  0.68791596  0.35419327    -0.43650
C2941       C  0.60253384  0.53788835  0.34657226    -0.00070
C2942       C  0.60276550  0.57108984  0.34213804    -0.11940
C2943       C  0.63194565  0.58596257  0.33910820     0.02170
C2944       C  0.66047915  0.56768400  0.34447531    -0.00150
C2945       C  0.66007039  0.53510996  0.33816643    -0.11880
C2946       C  0.63143913  0.51954321  0.34187648     0.02050
H2947       H  0.58061160  0.58526175  0.34177074     0.15030
H2948       H  0.68257770  0.52114400  0.33867021     0.15030
C2949       C  0.63331298  0.48509164  0.34319844     0.36690
C2950       C  0.63255576  0.62032922  0.33769056     0.36590
N2951       N  0.63536754  0.45748385  0.34397939    -0.43660
N2952       N  0.63314157  0.64790340  0.33660929    -0.43650
C2953       C  0.51269715  0.24769036  0.63721424    -0.00070
C2954       C  0.53980694  0.26389661  0.64826024    -0.11940
C2955       C  0.53953725  0.28038880  0.67822944     0.02170
C2956       C  0.51088281  0.28354953  0.69608229    -0.00150
C2957       C  0.48323322  0.27097779  0.68263116    -0.11880
C2958       C  0.48506073  0.24972335  0.65706206     0.02050
H2959       H  0.56125152  0.26304610  0.63417032     0.15030
H2960       H  0.46131378  0.27270625  0.69609389     0.15030
C2961       C  0.45791476  0.22925887  0.65324977     0.36690
C2962       C  0.56914044  0.29274894  0.69051628     0.36590
N2963       N  0.43609271  0.21318827  0.65022194    -0.43660
N2964       N  0.59323622  0.30260495  0.69969840    -0.43650
C2965       C  0.49880059  0.24184758  0.35551087    -0.00070
C2966       C  0.52601662  0.25191651  0.33953361    -0.11940
C2967       C  0.52393795  0.26468564  0.30818733     0.02170
C2968       C  0.49436476  0.26615367  0.29075704    -0.00150
C2969       C  0.46729428  0.25453645  0.30597820    -0.11880
C2970       C  0.46918384  0.24311891  0.33810381     0.02050
H2971       H  0.54872975  0.25264221  0.35287189     0.15030
H2972       H  0.44449065  0.25468218  0.29282371     0.15030
C2973       C  0.44008886  0.23483387  0.35346989     0.36690
C2974       C  0.55254545  0.27715769  0.29503720     0.36590
N2975       N  0.41676984  0.22821729  0.36587923    -0.43660
N2976       N  0.57576183  0.28717230  0.28507745    -0.43650
C2977       C  0.35636989  0.23567328  0.48219981    -0.00070
C2978       C  0.33687715  0.22841050  0.50847871    -0.11940
C2979       C  0.30831723  0.24575174  0.51523743     0.02170
C2980       C  0.29341785  0.26693016  0.49232891    -0.00150
C2981       C  0.31167664  0.27354303  0.46482113    -0.11880
C2982       C  0.34322382  0.25929327  0.46040129     0.02050
H2983       H  0.34546541  0.21078493  0.52619590     0.15030
H2984       H  0.30133228  0.28984898  0.44670610     0.15030
C2985       C  0.36161112  0.26970278  0.43382496     0.36690
C2986       C  0.29508880  0.24143560  0.54656175     0.36590
N2987       N  0.37636806  0.27826139  0.41252669    -0.43660
N2988       N  0.28515577  0.23779826  0.57193803    -0.43650
C2989       C  0.63359601  0.26156849  0.51154274    -0.00070
C2990       C  0.64509430  0.27868387  0.53819632    -0.11940
C2991       C  0.67777101  0.28611304  0.54193002     0.02170
C2992       C  0.70025538  0.27699304  0.51842186    -0.00150
C2993       C  0.68870164  0.25940795  0.49192556    -0.11880
C2994       C  0.65611637  0.25133014  0.48864973     0.02050
H2995       H  0.62811481  0.28758824  0.55558585     0.15030
H2996       H  0.70468317  0.25335349  0.47270515     0.15030
C2997       C  0.64593494  0.23399214  0.46053820     0.36690
C2998       C  0.68727063  0.30411234  0.56983669     0.36590
N2999       N  0.63782674  0.21992233  0.43806863    -0.43660
N3000       N  0.69440828  0.31858724  0.59236314    -0.43650
C3001       C  0.41505237  0.34859978  0.38140797    -0.00070
C3002       C  0.43455133  0.34302697  0.35536765    -0.11940
C3003       C  0.44430652  0.36909446  0.33794560     0.02170
C3004       C  0.42952750  0.39986593  0.34335101    -0.00150
C3005       C  0.40168308  0.40170980  0.36157626    -0.11880
C3006       C  0.39371662  0.37522250  0.37989830     0.02050
H3007       H  0.44840822  0.32055648  0.35421697     0.15030
H3008       H  0.38740384  0.42379901  0.36291368     0.15030
C3009       C  0.36335661  0.37437193  0.39529338     0.36690
C3010       C  0.47288673  0.36316917  0.31985967     0.36590
N3011       N  0.33842750  0.37242600  0.40644176    -0.43660
N3012       N  0.49634229  0.35606231  0.30709092    -0.43650
C3013       C  0.33184659  0.33138003  0.53438758    -0.00070
C3014       C  0.32088451  0.35203746  0.50977984    -0.11940
C3015       C  0.33231403  0.38253150  0.51127093     0.02170
C3016       C  0.33685831  0.39688176  0.54174698    -0.00150
C3017       C  0.33797322  0.37744993  0.56921334    -0.11880
C3018       C  0.33765829  0.34419258  0.56545815     0.02050
H3019       H  0.31543287  0.34231252  0.48616182     0.15030
H3020       H  0.33997986  0.38795286  0.59290834     0.15030
C3021       C  0.34629020  0.32387749  0.59268576     0.36690
C3022       C  0.33829091  0.39956466  0.48179912     0.36590
N3023       N  0.35339251  0.30763316  0.61452870    -0.43660
N3024       N  0.34339406  0.41448281  0.45918002    -0.43650
C3025       C  0.47567620  0.34559974  0.63716796    -0.00070
C3026       C  0.50868409  0.33872860  0.63495378    -0.11940
C3027       C  0.53069735  0.36062977  0.64574142     0.02170
C3028       C  0.51916435  0.38940767  0.65881111    -0.00150
C3029       C  0.48640969  0.39426299  0.66496263    -0.11880
C3030       C  0.46449886  0.37249943  0.65377280     0.02050
H3031       H  0.51696863  0.31876733  0.62053433     0.15030
H3032       H  0.47771082  0.41661975  0.67519725     0.15030
C3033       C  0.43060547  0.38066487  0.65352554     0.36690
C3034       C  0.56426244  0.35516148  0.63920609     0.36590
N3035       N  0.40320681  0.38575684  0.65131736    -0.43660
N3036       N  0.59116422  0.35076012  0.63397473    -0.43650
C3037       C  0.54761299  0.41887957  0.49576877    -0.00070
C3038       C  0.56134891  0.41597021  0.46526836    -0.11940
C3039       C  0.58433672  0.43675855  0.45551469     0.02170
C3040       C  0.59246581  0.46199897  0.47559888    -0.00150
C3041       C  0.57587521  0.46750213  0.50412595    -0.11880
C3042       C  0.55350807  0.44590963  0.51448077     0.02050
H3043       H  0.55627664  0.39570316  0.45008315     0.15030
H3044       H  0.58240730  0.48712844  0.51958312     0.15030
C3045       C  0.53928312  0.45040104  0.54538387     0.36690
C3046       C  0.60188709  0.42942526  0.42688266     0.36590
N3047       N  0.52778530  0.45409492  0.57012336    -0.43660
N3048       N  0.61617860  0.42305580  0.40423018    -0.43650
loop_ 
_geom_bond_atom_site_label_1 
_geom_bond_atom_site_label_2 
_geom_bond_distance 
_geom_bond_site_symmetry_2 
_ccdc_geom_bond_type 
C1           N19   1.343       .  A
C1           C38   1.446       .  S
C1         C3025   1.442       .  S
N2           N19   1.313       .  A
N2           N24   1.320       .  A
N2          Co39   2.051       .  S
C3           N28   1.382       .  A
C3           C41   1.522       .  S
C3           H48   1.081       .  S
H4           C45   1.081       .  S
C5           N29   1.338       .  A
C5            C9   1.451       .  S
C5           H34   1.081       .  S
Co6          N24   2.068       .  S
Co6          N14   1.947       .  S
Co6          N46   2.009       .  S
Co6          N22   2.014       .  S
Co6         Cl50   2.516       .  S
N7           C45   1.382       .  A
N7           N14   1.305       .  A
N7           Co8   2.231       .  S
Co8          N11   2.170       .  S
Co8          N28   2.249       .  S
Co8          N15   2.171       .  S
Co8         Cl50   2.330       .  S
C9           N47   1.370       .  A
C9         C2989   1.506       .  S
N10          N17   1.312       .  A
N10          N40   1.309       .  A
N10         Co43   2.026       .  S
N11          N29   1.320       .  A
N11          N47   1.341       .  A
N12          C41   1.331       .  A
N12          N22   1.310       .  A
H13          C38   1.067       .  S
N14          N35   1.295       .  A
N15          N33   1.311       .  A
N15          N20   1.345       .  A
C16          N20   1.378       .  A
C16          C44   1.424       .  S
C16        C2965   1.494       .  S
N17          C32   1.349       .  A
N17         Co39   2.088       .  S
C18          N46   1.334       .  A
C18          C21   1.445       .  S
C18          H52   1.081       .  S
C21          N42   1.343       .  A
C21        C3013   1.443       .  S
N22          N28   1.311       .  A
N23          C49   1.341       .  A
N23          N25   1.312       .  A
N23         Co39   2.030       .  S
N24          C38   1.331       .  A
N25          N53   1.319       .  A
N25         Co43   2.091       .  S
H26          C49   1.080       .  S
H27          C44   1.082       .  S
N29         Co43   2.069       .  S
N30          N42   1.300       .  A
N30          N46   1.312       .  A
N30         Co39   2.050       .  S
C31          N35   1.316       .  A
C31          C45   1.520       .  S
C31        C2953   1.523       .  S
C32          C51   1.472       .  S
C32          H36   1.081       .  S
N33          C44   1.320       .  A
N33         Co43   1.999       .  S
C37          N53   1.351       .  A
C37          C49   1.453       .  S
C37        C3001   1.470       .  S
Co39        Cl50   2.393       .  S
N40          C51   1.337       .  A
C41        C2977   1.545       .  S
Co43        Cl50   2.420       .  S
C51        C3037   1.471       .  S
C54          N72   1.334       .  A
C54          C91   1.475       .  S
C54        C3004   1.474       .  S
N55          N72   1.312       .  A
N55          N77   1.313       .  A
N55         Co92   2.028       .  S
C56          N81   1.344       .  A
C56          C94   1.447       .  S
C56         H101   1.081       .  S
H57          C98   1.081       .  S
C58          N82   1.370       .  A
C58          C62   1.504       .  S
C58          H87   1.081       .  S
Co59         N77   2.094       .  S
Co59         N67   2.083       .  S
Co59         N99   2.115       .  S
Co59         N75   2.048       .  S
Co59       Cl103   2.427       .  S
N60          C98   1.336       .  A
N60          N67   1.319       .  A
N60         Co61   2.028       .  S
Co61         N64   2.008       .  S
Co61         N81   2.060       .  S
Co61         N68   1.923       .  S
Co61       Cl103   2.455       .  S
C62         N100   1.327       .  A
C62        C2881   1.510       .  S
N63          N70   1.314       .  A
N63          N93   1.348       .  A
N63         Co96   2.192       .  S
N64          N82   1.314       .  A
N64         N100   1.304       .  A
N65          C94   1.340       .  A
N65          N75   1.311       .  A
H66          C91   1.082       .  S
N67          N88   1.315       .  A
N68          N86   1.312       .  A
N68          N73   1.293       .  A
C69          N73   1.309       .  A
C69          C97   1.531       .  S
C69        C2905   1.518       .  S
N70          C85   1.312       .  A
N70         Co92   1.984       .  S
C71          N99   1.350       .  A
C71          C74   1.476       .  S
C71         H105   1.079       .  S
C74          N95   1.329       .  A
C74        C2941   1.472       .  S
N75          N81   1.315       .  A
N76         C102   1.329       .  A
N76          N78   1.321       .  A
N76         Co92   2.055       .  S
N77          C91   1.349       .  A
N78         N106   1.338       .  A
N78         Co96   2.147       .  S
H79         C102   1.080       .  S
H80          C97   1.081       .  S
N82         Co96   2.185       .  S
N83          N95   1.309       .  A
N83          N99   1.314       .  A
N83         Co92   2.008       .  S
C84          N88   1.352       .  A
C84          C98   1.434       .  S
C84        C2917   1.449       .  S
C85         C104   1.412       .  S
C85          H89   1.072       .  S
N86          C97   1.389       .  A
N86         Co96   2.250       .  S
C90         N106   1.368       .  A
C90         C102   1.435       .  S
C90        C2872   1.484       .  S
Co92       Cl103   2.426       .  S
N93         C104   1.381       .  A
C94        C2932   1.439       .  S
Co96       Cl103   2.425       .  S
C104       C2896   1.494       .  S
C107        N125   1.347       .  A
C107        C144   1.423       .  S
C107       C2833   1.424       .  S
N108        N125   1.322       .  A
N108        N130   1.316       .  A
N108       Co145   2.062       .  S
C109        N134   1.376       .  A
C109        C147   1.511       .  S
C109        H154   1.080       .  S
H110        C151   1.081       .  S
C111        N135   1.330       .  A
C111        C115   1.435       .  S
C111        H140   1.081       .  S
Co112       N130   2.015       .  S
Co112       N120   1.996       .  S
Co112       N152   2.048       .  S
Co112       N128   2.015       .  S
Co112      Cl156   2.475       .  S
N113        C151   1.387       .  A
N113        N120   1.317       .  A
N113       Co114   2.265       .  S
Co114       N117   2.197       .  S
Co114       N134   2.214       .  S
Co114       N121   2.217       .  S
Co114      Cl156   2.378       .  S
C115        N153   1.375       .  A
C115       C2824   1.501       .  S
N116        N123   1.313       .  A
N116        N146   1.306       .  A
N116       Co149   2.000       .  S
N117        N135   1.321       .  A
N117        N153   1.344       .  A
N118        C147   1.330       .  A
N118        N128   1.313       .  A
H119        C144   1.081       .  S
N120        N141   1.313       .  A
N121        N139   1.310       .  A
N121        N126   1.353       .  A
C122        N126   1.389       .  A
C122        C150   1.422       .  S
C122       C2788   1.519       .  S
N123        C138   1.348       .  A
N123       Co145   2.095       .  S
C124        N152   1.330       .  A
C124        C127   1.458       .  S
C124        H158   1.080       .  S
C127        N148   1.350       .  A
C127       C2845   1.454       .  S
N128        N134   1.312       .  A
N129        C155   1.355       .  A
N129        N131   1.310       .  A
N129       Co145   2.075       .  S
N130        C144   1.319       .  A
N131        N159   1.301       .  A
N131       Co149   2.027       .  S
H132        C155   1.079       .  S
H133        C150   1.081       .  S
N135       Co149   2.033       .  S
N136        N148   1.315       .  A
N136        N152   1.314       .  A
N136       Co145   2.068       .  S
C137        N141   1.330       .  A
C137        C151   1.526       .  S
C137       C2809   1.548       .  S
C138        C157   1.472       .  S
C138        H142   1.081       .  S
N139        C150   1.318       .  A
N139       Co149   1.992       .  S
C143        N159   1.338       .  A
C143        C155   1.467       .  S
C143       C2860   1.479       .  S
Co145      Cl156   2.429       .  S
N146        C157   1.327       .  A
C147       C2797   1.528       .  S
Co149      Cl156   2.431       .  S
C157       C2929   1.446       .  S
C160        N178   1.347       .  A
C160        C197   1.447       .  S
C160       C2944   1.446       .  S
N161        N178   1.313       .  A
N161        N183   1.318       .  A
N161       Co198   2.065       .  S
C162        N187   1.384       .  A
C162        C200   1.519       .  S
C162        H207   1.081       .  S
H163        C204   1.081       .  S
C164        N188   1.327       .  A
C164        C168   1.433       .  S
C164        H193   1.082       .  S
Co165       N183   2.052       .  S
Co165       N173   2.003       .  S
Co165       N205   2.066       .  S
Co165       N181   2.019       .  S
Co165      Cl209   2.474       .  S
N166        C204   1.375       .  A
N166        N173   1.319       .  A
N166       Co167   2.212       .  S
Co167       N170   2.186       .  S
Co167       N187   2.220       .  S
Co167       N174   2.150       .  S
Co167      Cl209   2.421       .  S
C168        N206   1.375       .  A
C168       C2749   1.497       .  S
N169        N176   1.317       .  A
N169        N199   1.317       .  A
N169       Co202   2.067       .  S
N170        N188   1.319       .  A
N170        N206   1.343       .  A
N171        C200   1.329       .  A
N171        N181   1.307       .  A
H172        C197   1.081       .  S
N173        N194   1.308       .  A
N174        N192   1.318       .  A
N174        N179   1.342       .  A
C175        N179   1.369       .  A
C175        C203   1.449       .  S
C175       C2737   1.511       .  S
N176        C191   1.338       .  A
N176       Co198   2.059       .  S
C177        N205   1.331       .  A
C177        C180   1.439       .  S
C177        H211   1.063       .  S
C180        N201   1.333       .  A
C180       C2857   1.448       .  S
N181        N187   1.312       .  A
N182        C208   1.345       .  A
N182        N184   1.314       .  A
N182       Co198   2.071       .  S
N183        C197   1.340       .  A
N184        N212   1.308       .  A
N184       Co202   2.024       .  S
H185        C208   1.078       .  S
H186        C203   1.081       .  S
N188       Co202   2.024       .  S
N189        N201   1.311       .  A
N189        N205   1.314       .  A
N189       Co198   2.027       .  S
C190        N194   1.331       .  A
C190        C204   1.508       .  S
C190       C2761   1.520       .  S
C191        C210   1.455       .  S
C191        H195   1.082       .  S
N192        C203   1.338       .  A
N192       Co202   2.084       .  S
C196        N212   1.334       .  A
C196        C208   1.452       .  S
C196       C2776   1.454       .  S
Co198      Cl209   2.442       .  S
N199        C210   1.345       .  A
C200       C2725   1.548       .  S
Co202      Cl209   2.427       .  S
C210       C3040   1.454       .  S
C213        N231   1.347       .  A
C213        C250   1.445       .  S
C213       C3028   1.448       .  S
N214        N231   1.316       .  A
N214        N236   1.310       .  A
N214       Co251   2.052       .  S
C215        N240   1.375       .  A
C215        C253   1.509       .  S
C215        H260   1.081       .  S
H216        C257   1.081       .  S
C217        N241   1.315       .  A
C217        C221   1.415       .  S
C217        H246   1.083       .  S
Co218       N236   2.042       .  S
Co218       N226   2.037       .  S
Co218       N258   2.091       .  S
Co218       N234   1.978       .  S
Co218      Cl262   2.438       .  S
N219        C257   1.367       .  A
N219        N226   1.326       .  A
N219       Co220   2.202       .  S
Co220       N223   2.231       .  S
Co220       N240   2.196       .  S
Co220       N227   2.228       .  S
Co220      Cl262   2.433       .  S
C221        N259   1.396       .  A
C221       C2689   1.532       .  S
N222        N229   1.311       .  A
N222        N252   1.306       .  A
N222       Co255   2.037       .  S
N223        N241   1.302       .  A
N223        N259   1.359       .  A
N224        C253   1.320       .  A
N224        N234   1.303       .  A
H225        C250   1.080       .  S
N226        N247   1.313       .  A
N227        N245   1.323       .  A
N227        N232   1.352       .  A
C228        N232   1.384       .  A
C228        C256   1.451       .  S
C228       C2665   1.548       .  S
N229        C244   1.345       .  A
N229       Co251   2.085       .  S
C230        N258   1.343       .  A
C230        C233   1.447       .  S
C230        H264   1.075       .  S
C233        N254   1.341       .  A
C233       C2773   1.460       .  S
N234        N240   1.313       .  A
N235        C261   1.345       .  A
N235        N237   1.304       .  A
N235       Co251   2.070       .  S
N236        C250   1.336       .  A
N237        N265   1.303       .  A
N237       Co255   1.991       .  S
H238        C261   1.081       .  S
H239        C256   1.075       .  S
N241       Co255   1.952       .  S
N242        N254   1.314       .  A
N242        N258   1.323       .  A
N242       Co251   2.052       .  S
C243        N247   1.331       .  A
C243        C257   1.497       .  S
C243       C2701   1.501       .  S
C244        C263   1.481       .  S
C244        H248   1.081       .  S
N245        C256   1.338       .  A
N245       Co255   2.080       .  S
C249        N265   1.324       .  A
C249        C261   1.475       .  S
C249       C2848   1.450       .  S
Co251      Cl262   2.466       .  S
N252        C263   1.333       .  A
C253       C2677   1.502       .  S
Co255      Cl262   2.396       .  S
C263       C2713   1.447       .  S
C266        N284   1.333       .  A
C266        C303   1.479       .  S
C266       C3016   1.457       .  S
N267        N284   1.302       .  A
N267        N289   1.301       .  A
N267       Co304   2.010       .  S
C268        N293   1.322       .  A
C268        C306   1.442       .  S
C268        H313   1.069       .  S
H269        C310   1.078       .  S
C270        N294   1.382       .  A
C270        C274   1.516       .  S
C270        H299   1.081       .  S
Co271       N289   2.073       .  S
Co271       N279   2.030       .  S
Co271       N311   2.041       .  S
Co271       N287   2.048       .  S
Co271      Cl315   2.438       .  S
N272        C310   1.342       .  A
N272        N279   1.313       .  A
N272       Co273   2.049       .  S
Co273       N276   1.996       .  S
Co273       N293   2.043       .  S
Co273       N280   1.991       .  S
Co273      Cl315   2.482       .  S
C274        N312   1.327       .  A
C274       C2617   1.535       .  S
N275        N282   1.307       .  A
N275        N305   1.352       .  A
N275       Co308   2.216       .  S
N276        N294   1.316       .  A
N276        N312   1.307       .  A
N277        C306   1.343       .  A
N277        N287   1.313       .  A
H278        C303   1.081       .  S
N279        N300   1.303       .  A
N280        N298   1.312       .  A
N280        N285   1.308       .  A
C281        N285   1.328       .  A
C281        C309   1.535       .  S
C281       C2641   1.558       .  S
N282        C297   1.318       .  A
N282       Co304   1.962       .  S
C283        N311   1.345       .  A
C283        C286   1.469       .  S
C283        H317   1.081       .  S
C286        N307   1.331       .  A
C286       C2920   1.462       .  S
N287        N293   1.316       .  A
N288        C314   1.316       .  A
N288        N290   1.319       .  A
N288       Co304   2.015       .  S
N289        C303   1.351       .  A
N290        N318   1.346       .  A
N290       Co308   2.197       .  S
H291        C314   1.076       .  S
H292        C309   1.081       .  S
N294       Co308   2.239       .  S
N295        N307   1.305       .  A
N295        N311   1.305       .  A
N295       Co304   2.027       .  S
C296        N300   1.337       .  A
C296        C310   1.450       .  S
C296       C2716   1.434       .  S
C297        C316   1.411       .  S
C297        H301   1.082       .  S
N298        C309   1.391       .  A
N298       Co308   2.272       .  S
C302        N318   1.380       .  A
C302        C314   1.427       .  S
C302       C2629   1.502       .  S
Co304      Cl315   2.373       .  S
N305        C316   1.389       .  A
C306       C2836   1.430       .  S
Co308      Cl315   2.377       .  S
C316       C2653   1.506       .  S
C319        N337   1.349       .  A
C319        C356   1.461       .  S
C319       C2572   1.470       .  S
N320        N337   1.321       .  A
N320        N342   1.317       .  A
N320       Co357   2.062   1_556  S
C321        N346   1.373   1_554  A
C321        C359   1.504   1_554  S
C321        H366   1.081       .  S
H322        C363   1.081       .  S
C323        N347   1.319       .  A
C323        C327   1.426       .  S
C323        H352   1.079       .  S
Co324       N342   2.077       .  S
Co324       N332   1.965       .  S
Co324       N364   1.985       .  S
Co324       N340   2.080       .  S
Co324      Cl368   2.419   1_556  S
N325        C363   1.383       .  A
N325        N332   1.312       .  A
N325       Co326   2.237   1_556  S
Co326       N329   2.234       .  S
Co326       N346   2.186   1_554  S
Co326       N333   2.261       .  S
Co326      Cl368   2.423       .  S
C327        N365   1.382       .  A
C327       C2533   1.507       .  S
N328        N335   1.307       .  A
N328        N358   1.312       .  A
N328       Co361   2.015       .  S
N329        N347   1.324       .  A
N329        N365   1.348       .  A
N330        C359   1.339       .  A
N330        N340   1.319       .  A
H331        C356   1.079       .  S
N332        N353   1.307       .  A
N333        N351   1.303       .  A
N333        N338   1.359       .  A
C334        N338   1.401       .  A
C334        C362   1.409       .  S
C334       C2545   1.532       .  S
N335        C350   1.342       .  A
N335       Co357   2.060       .  S
C336        N364   1.332       .  A
C336        C339   1.426       .  S
C336        H370   1.081       .  S
C339        N360   1.343   1_556  A
C339       C2596   1.413       .  S
N340        N346   1.322       .  A
N341        C367   1.346       .  A
N341        N343   1.316       .  A
N341       Co357   2.085       .  S
N342        C356   1.332       .  A
N343        N371   1.317       .  A
N343       Co361   2.059       .  S
H344        C367   1.079       .  S
H345        C362   1.083       .  S
N347       Co361   2.010       .  S
N348        N360   1.307       .  A
N348        N364   1.307   1_554  A
N348       Co357   2.043       .  S
C349        N353   1.319       .  A
C349        C363   1.523       .  S
C349       C2557   1.521       .  S
C350        C369   1.461       .  S
C350        H354   1.080       .  S
N351        C362   1.309       .  A
N351       Co361   1.932       .  S
C355        N371   1.344       .  A
C355        C367   1.470       .  S
C355       C2584   1.479       .  S
Co357      Cl368   2.440       .  S
N358        C369   1.330       .  A
C359       C2521   1.532       .  S
Co361      Cl368   2.434       .  S
C369       C2608   1.448       .  S
C372        N390   1.338       .  A
C372        C409   1.463       .  S
C372       C2569   1.471       .  S
N373        N390   1.316       .  A
N373        N395   1.313       .  A
N373       Co410   2.031       .  S
C374        N399   1.338       .  A
C374        C412   1.471       .  S
C374        H419   1.075       .  S
H375        C416   1.081       .  S
C376        N400   1.372       .  A
C376        C380   1.504       .  S
C376        H405   1.081   1_455  S
Co377       N395   2.084   1_455  S
Co377       N385   2.027       .  S
Co377       N417   2.021       .  S
Co377       N393   2.032       .  S
Co377      Cl421   2.422       .  S
N378        C416   1.339       .  A
N378        N385   1.308       .  A
N378       Co379   2.051       .  S
Co379       N382   2.006       .  S
Co379       N399   2.089       .  S
Co379       N386   1.999       .  S
Co379      Cl421   2.438       .  S
C380        N418   1.332       .  A
C380       C2461   1.513       .  S
N381        N388   1.319       .  A
N381        N411   1.350       .  A
N381       Co414   2.237   1_655  S
N382        N400   1.324       .  A
N382        N418   1.310       .  A
N383        C412   1.342       .  A
N383        N393   1.315       .  A
H384        C409   1.077       .  S
N385        N406   1.307       .  A
N386        N404   1.313       .  A
N386        N391   1.304       .  A
C387        N391   1.323       .  A
C387        C415   1.531       .  S
C387       C2437   1.541       .  S
N388        C403   1.316       .  A
N388       Co410   1.987       .  S
C389        N417   1.321       .  A
C389        C392   1.444       .  S
C389        H423   1.079       .  S
C392        N413   1.349   1_455  A
C392       C2500   1.436       .  S
N393        N399   1.310       .  A
N394        C420   1.311       .  A
N394        N396   1.310       .  A
N394       Co410   1.981       .  S
N395        C409   1.341       .  A
N396        N424   1.349   1_655  A
N396       Co414   2.219   1_655  S
H397        C420   1.083       .  S
H398        C415   1.081       .  S
N400       Co414   2.223       .  S
N401        N413   1.322       .  A
N401        N417   1.306   1_655  A
N401       Co410   2.047       .  S
C402        N406   1.340       .  A
C402        C416   1.466       .  S
C402       C2512   1.462       .  S
C403        C422   1.427       .  S
C403        H407   1.074       .  S
N404        C415   1.387       .  A
N404       Co414   2.242       .  S
C408        N424   1.392   1_655  A
C408        C420   1.420       .  S
C408       C2452   1.513       .  S
Co410      Cl421   2.440   1_655  S
N411        C422   1.385       .  A
C412       C2488   1.479       .  S
Co414      Cl421   2.395       .  S
C422       C2476   1.513       .  S
C425        N443   1.326       .  A
C425        C462   1.514       .  S
C425       C2353   1.528       .  S
N426        N443   1.311       .  A
N426        N448   1.315       .  A
N426       Co463   1.992       .  S
C427        N452   1.308       .  A
C427        C465   1.402       .  S
C427        H472   1.083       .  S
H428        C469   1.078       .  S
C429        N453   1.358       .  A
C429        C433   1.483       .  S
C429        H458   1.081       .  S
Co430       N448   2.232       .  S
Co430       N438   2.210       .  S
Co430       N470   2.233       .  S
Co430       N446   2.224   1_556  S
Co430      Cl474   2.396       .  S
N431        C469   1.335       .  A
N431        N438   1.322   1_554  A
N431       Co432   2.061       .  S
Co432       N435   1.965       .  S
Co432       N452   1.932       .  S
Co432       N439   2.043       .  S
Co432      Cl474   2.421   1_554  S
C433        N471   1.315   1_556  A
C433       C2413   1.451       .  S
N434        N441   1.314       .  A
N434        N464   1.320       .  A
N434       Co467   2.062       .  S
N435        N453   1.306   1_554  A
N435        N471   1.292       .  A
N436        C465   1.391       .  A
N436        N446   1.354       .  A
H437        C462   1.081       .  S
N438        N459   1.348       .  A
N439        N457   1.312       .  A
N439        N444   1.314       .  A
C440        N444   1.343       .  A
C440        C468   1.469       .  S
C440       C2401   1.474       .  S
N441        C456   1.317       .  A
N441       Co463   2.035       .  S
C442        N470   1.384   1_554  A
C442        C445   1.523   1_554  S
C442        H476   1.081       .  S
C445        N466   1.331       .  A
C445       C2377   1.546   1_556  S
N446        N452   1.306       .  A
N447        C473   1.331       .  A
N447        N449   1.310       .  A
N447       Co463   2.012       .  S
N448        C462   1.381       .  A
N449        N477   1.304       .  A
N449       Co467   2.046       .  S
H450        C473   1.073       .  S
H451        C468   1.080       .  S
N453       Co467   2.092       .  S
N454        N466   1.309       .  A
N454        N470   1.316       .  A
N454       Co463   2.022       .  S
C455        N459   1.378       .  A
C455        C469   1.437   1_556  S
C455       C2392   1.522       .  S
C456        C475   1.443       .  S
C456        H460   1.074       .  S
N457        C468   1.348       .  A
N457       Co467   2.092   1_554  S
C461        N477   1.344       .  A
C461        C473   1.442       .  S
C461       C2425   1.432       .  S
Co463      Cl474   2.469       .  S
N464        C475   1.353       .  A
C465       C2365   1.503       .  S
Co467      Cl474   2.425       .  S
C475       C2485   1.457       .  S
C478        N496   1.322       .  A
C478        C515   1.460       .  S
C478       C2581   1.443       .  S
N479        N496   1.302       .  A
N479        N501   1.311       .  A
N479       Co516   1.995       .  S
C480        N505   1.327       .  A
C480        C518   1.443       .  S
C480        H525   1.074       .  S
H481        C522   1.075       .  S
C482        N506   1.375   1_655  A
C482        C486   1.506   1_655  S
C482        H511   1.081       .  S
Co483       N501   2.068   1_455  S
Co483       N491   2.089       .  S
Co483       N523   2.092   1_455  S
Co483       N499   2.072       .  S
Co483      Cl527   2.457       .  S
N484        C522   1.319       .  A
N484        N491   1.314       .  A
N484       Co485   2.026       .  S
Co485       N488   2.028       .  S
Co485       N505   2.039       .  S
Co485       N492   2.003       .  S
Co485      Cl527   2.437       .  S
C486        N524   1.326       .  A
C486       C2320   1.511       .  S
N487        N494   1.313       .  A
N487        N517   1.358       .  A
N487       Co520   2.248   1_655  S
N488        N506   1.319       .  A
N488        N524   1.311       .  A
N489        C518   1.352       .  A
N489        N499   1.323       .  A
H490        C515   1.077       .  S
N491        N512   1.328   1_455  A
N492        N510   1.320       .  A
N492        N497   1.306       .  A
C493        N497   1.322       .  A
C493        C521   1.514       .  S
C493       C2296   1.515       .  S
N494        C509   1.317       .  A
N494       Co516   1.998       .  S
C495        N523   1.356   1_455  A
C495        C498   1.478       .  S
C495        H529   1.081       .  S
C498        N519   1.318   1_455  A
C498       C2344   1.452       .  S
N499        N505   1.313       .  A
N500        C526   1.318       .  A
N500        N502   1.314   1_655  A
N500       Co516   1.999       .  S
N501        C515   1.341       .  A
N502        N530   1.353       .  A
N502       Co520   2.224       .  S
H503        C526   1.079       .  S
H504        C521   1.081       .  S
N506       Co520   2.197       .  S
N507        N519   1.293       .  A
N507        N523   1.312       .  A
N507       Co516   1.994       .  S
C508        N512   1.352       .  A
C508        C522   1.439   1_655  S
C508       C2329   1.478       .  S
C509        C528   1.424       .  S
C509        H513   1.078       .  S
N510        C521   1.380       .  A
N510       Co520   2.224       .  S
C514        N530   1.388       .  A
C514        C526   1.423   1_455  S
C514       C2308   1.522       .  S
Co516      Cl527   2.422   1_655  S
N517        C528   1.395       .  A
C518       C2404   1.466       .  S
Co520      Cl527   2.447       .  S
C528       C2284   1.540       .  S
C531        N549   1.325       .  A
C531        C568   1.504       .  S
C531       C2236   1.502       .  S
N532        N549   1.313       .  A
N532        N554   1.316       .  A
N532       Co569   2.008   1_554  S
C533        N558   1.303       .  A
C533        C571   1.448   1_554  S
C533        H578   1.074       .  S
H534        C575   1.082       .  S
C535        N559   1.327       .  A
C535        C539   1.448       .  S
C535        H564   1.080       .  S
Co536       N554   2.198   1_455  S
Co536       N544   2.269       .  S
Co536       N576   2.210   1_454  S
Co536       N552   2.253   1_554  S
Co536      Cl580   2.399       .  S
N537        C575   1.307       .  A
N537        N544   1.312       .  A
N537       Co538   1.954       .  S
Co538       N541   2.074       .  S
Co538       N558   2.001       .  S
Co538       N545   2.083       .  S
Co538      Cl580   2.433       .  S
C539        N577   1.340       .  A
C539       C2332   1.461   1_455  S
N540        N547   1.305       .  A
N540        N570   1.324       .  A
N540       Co573   2.031   1_655  S
N541        N559   1.316       .  A
N541        N577   1.321       .  A
N542        C571   1.398       .  A
N542        N552   1.355       .  A
H543        C568   1.081       .  S
N544        N565   1.355   1_455  A
N545        N563   1.314       .  A
N545        N550   1.321       .  A
C546        N550   1.350   1_556  A
C546        C574   1.446       .  S
C546       C2416   1.447       .  S
N547        C562   1.309       .  A
N547       Co569   2.021   1_554  S
C548        N576   1.379   1_455  A
C548        C551   1.522   1_455  S
C548        H582   1.081       .  S
C551        N572   1.324       .  A
C551       C2245   1.529       .  S
N552        N558   1.305   1_556  A
N553        C579   1.330       .  A
N553        N555   1.310       .  A
N553       Co569   2.074   1_455  S
N554        C568   1.371       .  A
N555        N583   1.320       .  A
N555       Co573   2.021   1_556  S
H556        C579   1.068       .  S
H557        C574   1.079       .  S
N559       Co573   2.040       .  S
N560        N572   1.309       .  A
N560        N576   1.308       .  A
N560       Co569   1.988       .  S
C561        N565   1.394   1_455  A
C561        C575   1.426       .  S
C561       C2269   1.530       .  S
C562        C581   1.428       .  S
C562        H566   1.074       .  S
N563        C574   1.323   1_554  A
N563       Co573   2.029       .  S
C567        N583   1.341       .  A
C567        C579   1.433       .  S
C567       C2497   1.431       .  S
Co569      Cl580   2.349   1_656  S
N570        C581   1.354       .  A
C571       C2257   1.553       .  S
Co573      Cl580   2.506       .  S
C581       C2593   1.438       .  S
C584        N602   1.353       .  A
C584        C621   1.459       .  S
C584       C2605   1.457       .  S
N585        N602   1.320       .  A
N585        N607   1.319       .  A
N585       Co622   2.112   1_554  S
C586        N611   1.323   1_556  A
C586        C624   1.440       .  S
C586        H631   1.076       .  S
H587        C628   1.081       .  S
C588        N612   1.373       .  A
C588        C592   1.511       .  S
C588        H617   1.081   1_455  S
Co589       N607   2.028       .  S
Co589       N597   2.053   1_655  S
Co589       N629   2.036   1_554  S
Co589       N605   2.050   1_655  S
Co589      Cl633   2.426   1_655  S
N590        C628   1.333       .  A
N590        N597   1.307       .  A
N590       Co591   2.020       .  S
Co591       N594   2.065       .  S
Co591       N611   2.029       .  S
Co591       N598   1.963   1_554  S
Co591      Cl633   2.379       .  S
C592        N630   1.333       .  A
C592       C2224   1.526       .  S
N593        N600   1.299       .  A
N593        N623   1.357   1_556  A
N593       Co626   2.248   1_655  S
N594        N612   1.319       .  A
N594        N630   1.312       .  A
N595        C624   1.346       .  A
N595        N605   1.322   1_556  A
H596        C621   1.082       .  S
N597        N618   1.314   1_455  A
N598        N616   1.310       .  A
N598        N603   1.309       .  A
C599        N603   1.320       .  A
C599        C627   1.521       .  S
C599       C2197   1.519       .  S
N600        C615   1.299       .  A
N600       Co622   1.965       .  S
C601        N629   1.320       .  A
C601        C604   1.458       .  S
C601        H635   1.080       .  S
C604        N625   1.351       .  A
C604       C2509   1.470       .  S
N605        N611   1.314       .  A
N606        C632   1.317       .  A
N606        N608   1.328   1_655  A
N606       Co622   1.994       .  S
N607        C621   1.324       .  A
N608        N636   1.346       .  A
N608       Co626   2.243       .  S
H609        C632   1.079       .  S
H610        C627   1.081       .  S
N612       Co626   2.185   1_554  S
N613        N625   1.322       .  A
N613        N629   1.304       .  A
N613       Co622   2.031       .  S
C614        N618   1.357   1_455  A
C614        C628   1.434       .  S
C614       C2341   1.451       .  S
C615        C634   1.426   1_556  S
C615        H619   1.082       .  S
N616        C627   1.380       .  A
N616       Co626   2.237       .  S
C620        N636   1.379       .  A
C620        C632   1.431   1_455  S
C620       C2212   1.499       .  S
Co622      Cl633   2.405   1_656  S
N623        C634   1.402       .  A
C624       C2428   1.431       .  S
Co626      Cl633   2.374   1_556  S
C634       C2185   1.544       .  S
C637        N655   1.318       .  A
C637        C674   1.519   1_554  S
C637       C2101   1.520       .  S
N638        N655   1.304       .  A
N638        N660   1.314       .  A
N638       Co675   1.980       .  S
C639        N664   1.313       .  A
C639        C677   1.423   1_556  S
C639        H684   1.083       .  S
H640        C681   1.081       .  S
C641        N665   1.315       .  A
C641        C645   1.435       .  S
C641        H670   1.082       .  S
Co642       N660   2.221       .  S
Co642       N650   2.226   1_554  S
Co642       N682   2.203       .  S
Co642       N658   2.222   1_554  S
Co642      Cl686   2.416       .  S
N643        C681   1.326       .  A
N643        N650   1.324       .  A
N643       Co644   2.022       .  S
Co644       N647   2.035       .  S
Co644       N664   1.980       .  S
Co644       N651   2.113       .  S
Co644      Cl686   2.440   1_556  S
C645        N683   1.342       .  A
C645       C2137   1.427       .  S
N646        N653   1.314       .  A
N646        N676   1.327   1_554  A
N646       Co679   2.051       .  S
N647        N665   1.310       .  A
N647        N683   1.323       .  A
N648        C677   1.389       .  A
N648        N658   1.350   1_554  A
H649        C674   1.081       .  S
N650        N671   1.348       .  A
N651        N669   1.313   1_556  A
N651        N656   1.323       .  A
C652        N656   1.361   1_554  A
C652        C680   1.458       .  S
C652       C2161   1.471       .  S
N653        C668   1.319       .  A
N653       Co675   2.037       .  S
C654        N682   1.376       .  A
C654        C657   1.514       .  S
C654        H688   1.081       .  S
C657        N678   1.313       .  A
C657       C2113   1.495       .  S
N658        N664   1.310       .  A
N659        C685   1.324       .  A
N659        N661   1.304       .  A
N659       Co675   2.023       .  S
N660        C674   1.382   1_554  A
N661        N689   1.317       .  A
N661       Co679   2.036       .  S
H662        C685   1.082       .  S
H663        C680   1.082       .  S
N665       Co679   2.009   1_556  S
N666        N678   1.301       .  A
N666        N682   1.313       .  A
N666       Co675   1.965       .  S
C667        N671   1.379       .  A
C667        C681   1.435       .  S
C667       C2125   1.511       .  S
C668        C687   1.426       .  S
C668        H672   1.077       .  S
N669        C680   1.324       .  A
N669       Co679   2.025       .  S
C673        N689   1.350       .  A
C673        C685   1.443       .  S
C673       C2149   1.448       .  S
Co675      Cl686   2.385       .  S
N676        C687   1.347   1_556  A
C677       C2092   1.515       .  S
Co679      Cl686   2.444       .  S
C687       C2176   1.433   1_554  S
C690        N708   1.353       .  A
C690        C727   1.452       .  S
C690       C2140   1.447       .  S
N691        N708   1.321   1_545  A
N691        N713   1.314   1_545  A
N691       Co728   2.047       .  S
C692        N717   1.376       .  A
C692        C730   1.510       .  S
C692        H737   1.081       .  S
H693        C734   1.081       .  S
C694        N718   1.319       .  A
C694        C698   1.424       .  S
C694        H723   1.079       .  S
Co695       N713   2.071       .  S
Co695       N703   1.986       .  S
Co695       N735   2.060   1_565  S
Co695       N711   2.040   1_565  S
Co695      Cl739   2.389   1_565  S
N696        C734   1.387       .  A
N696        N703   1.312       .  A
N696       Co697   2.231   1_565  S
Co697       N700   2.213       .  S
Co697       N717   2.210       .  S
Co697       N704   2.218       .  S
Co697      Cl739   2.475       .  S
C698        N736   1.378       .  A
C698       C2008   1.496       .  S
N699        N706   1.302       .  A
N699        N729   1.308       .  A
N699       Co732   1.992       .  S
N700        N718   1.327       .  A
N700        N736   1.346       .  A
N701        C730   1.328       .  A
N701        N711   1.310       .  A
H702        C727   1.077       .  S
N703        N724   1.304       .  A
N704        N722   1.303       .  A
N704        N709   1.354       .  A
C705        N709   1.394       .  A
C705        C733   1.386       .  S
C705       C2029   1.494       .  S
N706        C721   1.336       .  A
N706       Co728   2.050       .  S
C707        N735   1.342       .  A
C707        C710   1.446       .  S
C707        H741   1.074       .  S
C710        N731   1.341       .  A
C710       C2068   1.464       .  S
N711        N717   1.322       .  A
N712        C738   1.335       .  A
N712        N714   1.311       .  A
N712       Co728   2.083       .  S
N713        C727   1.328       .  A
N714        N742   1.318       .  A
N714       Co732   2.048       .  S
H715        C738   1.079       .  S
H716        C733   1.084       .  S
N718       Co732   2.024       .  S
N719        N731   1.313       .  A
N719        N735   1.310       .  A
N719       Co728   2.033       .  S
C720        N724   1.323       .  A
C720        C734   1.528       .  S
C720       C2041   1.542       .  S
C721        C740   1.469       .  S
C721        H725   1.080       .  S
N722        C733   1.289       .  A
N722       Co732   1.884       .  S
C726        N742   1.345       .  A
C726        C738   1.477       .  S
C726       C2053   1.474       .  S
Co728      Cl739   2.476       .  S
N729        C740   1.330       .  A
C730       C2020   1.519       .  S
Co732      Cl739   2.382       .  S
C740       C2080   1.436       .  S
C743        N761   1.334       .  A
C743        C780   1.461       .  S
C743       C2056   1.464       .  S
N744        N761   1.309       .  A
N744        N766   1.307       .  A
N744       Co781   2.032       .  S
C745        N770   1.336       .  A
C745        C783   1.445       .  S
C745        H790   1.078       .  S
H746        C787   1.045       .  S
C747        N771   1.396       .  A
C747        C751   1.546       .  S
C747        H776   1.081       .  S
Co748       N766   2.054   1_554  S
Co748       N756   2.021   1_554  S
Co748       N788   2.055       .  S
Co748       N764   2.033       .  S
Co748      Cl792   2.489       .  S
N749        C787   1.319   1_554  A
N749        N756   1.313   1_554  A
N749       Co750   2.059       .  S
Co750       N753   1.974       .  S
Co750       N770   2.063       .  S
Co750       N757   1.986       .  S
Co750      Cl792   2.424       .  S
C751        N789   1.325       .  A
C751       C1933   1.571       .  S
N752        N759   1.322       .  A
N752        N782   1.345       .  A
N752       Co785   2.176       .  S
N753        N771   1.303   1_554  A
N753        N789   1.304   1_554  A
N754        C783   1.347       .  A
N754        N764   1.315       .  A
H755        C780   1.079       .  S
N756        N777   1.317       .  A
N757        N775   1.319       .  A
N757        N762   1.304       .  A
C758        N762   1.325       .  A
C758        C786   1.521       .  S
C758       C1957   1.527       .  S
N759        C774   1.330       .  A
N759       Co781   2.081       .  S
C760        N788   1.339       .  A
C760        C763   1.477       .  S
C760        H794   1.082       .  S
C763        N784   1.341       .  A
C763       C1996   1.462       .  S
N764        N770   1.311       .  A
N765        C791   1.320       .  A
N765        N767   1.311       .  A
N765       Co781   1.976   1_554  S
N766        C780   1.342       .  A
N767        N795   1.351       .  A
N767       Co785   2.219   1_554  S
H768        C791   1.082       .  S
H769        C786   1.081       .  S
N771       Co785   2.277       .  S
N772        N784   1.305       .  A
N772        N788   1.310       .  A
N772       Co781   2.049   1_554  S
C773        N777   1.344       .  A
C773        C787   1.426       .  S
C773       C1984   1.425       .  S
C774        C793   1.447       .  S
C774        H778   1.077       .  S
N775        C786   1.380       .  A
N775       Co785   2.253   1_554  S
C779        N795   1.387       .  A
C779        C791   1.417       .  S
C779       C1921   1.510       .  S
Co781      Cl792   2.377   1_556  S
N782        C793   1.377       .  A
C783       C1969   1.447       .  S
Co785      Cl792   2.420   1_556  S
C793       C1945   1.522       .  S
C796        N814   1.337       .  A
C796        C833   1.453       .  S
C796       C2152   1.467       .  S
N797        N814   1.305       .  A
N797        N819   1.307       .  A
N797       Co834   2.014       .  S
C798        N823   1.335       .  A
C798        C836   1.449       .  S
C798        H843   1.076       .  S
H799        C840   1.068       .  S
C800        N824   1.386   1_565  A
C800        C804   1.523       .  S
C800        H829   1.081       .  S
Co801       N819   2.061   1_545  S
Co801       N809   2.006       .  S
Co801       N841   2.058       .  S
Co801       N817   2.052       .  S
Co801      Cl845   2.440       .  S
N802        C840   1.336       .  A
N802        N809   1.312       .  A
N802       Co803   2.065       .  S
Co803       N806   2.001       .  S
Co803       N823   2.053       .  S
Co803       N810   2.004       .  S
Co803      Cl845   2.488       .  S
C804        N842   1.329   1_565  A
C804       C1885   1.549       .  S
N805        N812   1.319       .  A
N805        N835   1.343       .  A
N805       Co838   2.163   1_565  S
N806        N824   1.312       .  A
N806        N842   1.306       .  A
N807        C836   1.346       .  A
N807        N817   1.314       .  A
H808        C833   1.079       .  S
N809        N830   1.298       .  A
N810        N828   1.321       .  A
N810        N815   1.308       .  A
C811        N815   1.329       .  A
C811        C839   1.522       .  S
C811       C1849   1.539       .  S
N812        C827   1.337       .  A
N812       Co834   2.082       .  S
C813        N841   1.344       .  A
C813        C816   1.471       .  S
C813        H847   1.081       .  S
C816        N837   1.338       .  A
C816       C1897   1.442       .  S
N817        N823   1.314       .  A
N818        C844   1.319       .  A
N818        N820   1.311       .  A
N818       Co834   1.980   1_545  S
N819        C833   1.350       .  A
N820        N848   1.350       .  A
N820       Co838   2.207       .  S
H821        C844   1.082       .  S
H822        C839   1.081       .  S
N824       Co838   2.242       .  S
N825        N837   1.307       .  A
N825        N841   1.310       .  A
N825       Co834   2.042   1_545  S
C826        N830   1.330       .  A
C826        C840   1.459       .  S
C826       C1912   1.433   1_545  S
C827        C846   1.450       .  S
C827        H831   1.078       .  S
N828        C839   1.382       .  A
N828       Co838   2.256       .  S
C832        N848   1.386       .  A
C832        C844   1.415       .  S
C832       C1873   1.506       .  S
Co834      Cl845   2.405   1_565  S
N835        C846   1.372       .  A
C836       C1972   1.447       .  S
Co838      Cl845   2.388       .  S
C846       C1864   1.513       .  S
C849        N867   1.336       .  A
C849        C886   1.472       .  S
C849       C1900   1.460       .  S
N850        N867   1.299       .  A
N850        N872   1.316       .  A
N850       Co887   2.032   1_554  S
C851        N876   1.388       .  A
C851        C889   1.523       .  S
C851        H896   1.081       .  S
H852        C893   1.081       .  S
C853        N877   1.328       .  A
C853        C857   1.440       .  S
C853        H882   1.078       .  S
Co854       N872   2.079       .  S
Co854       N862   1.949       .  S
Co854       N894   1.983       .  S
Co854       N870   2.042       .  S
Co854      Cl898   2.509   1_554  S
N855        C893   1.384   1_545  A
N855        N862   1.312       .  A
N855       Co856   2.251   1_554  S
Co856       N859   2.204   1_545  S
Co856       N876   2.253       .  S
Co856       N863   2.202       .  S
Co856      Cl898   2.356       .  S
C857        N895   1.380       .  A
C857       C1801   1.521       .  S
N858        N865   1.302   1_565  A
N858        N888   1.297       .  A
N858       Co891   1.980       .  S
N859        N877   1.322       .  A
N859        N895   1.348       .  A
N860        C889   1.337   1_554  A
N860        N870   1.316       .  A
H861        C886   1.081       .  S
N862        N883   1.303       .  A
N863        N881   1.307       .  A
N863        N868   1.350       .  A
C864        N868   1.386       .  A
C864        C892   1.406       .  S
C864       C1828   1.495       .  S
N865        C880   1.357   1_546  A
N865       Co887   2.093       .  S
C866        N894   1.324       .  A
C866        C869   1.423   1_554  S
C866        H900   1.075       .  S
C869        N890   1.343       .  A
C869       C1981   1.410       .  S
N870        N876   1.318   1_554  A
N871        C897   1.345       .  A
N871        N873   1.309       .  A
N871       Co887   2.080       .  S
N872        C886   1.348       .  A
N873        N901   1.308       .  A
N873       Co891   2.020   1_545  S
H874        C897   1.076       .  S
H875        C892   1.083       .  S
N877       Co891   2.056       .  S
N878        N890   1.309   1_554  A
N878        N894   1.309       .  A
N878       Co887   2.056   1_554  S
C879        N883   1.321       .  A
C879        C893   1.523   1_545  S
C879       C1837   1.528   1_545  S
C880        C899   1.484   1_554  S
C880        H884   1.081       .  S
N881        C892   1.311       .  A
N881       Co891   1.950   1_545  S
C885        N901   1.339       .  A
C885        C897   1.468       .  S
C885       C2065   1.471       .  S
Co887      Cl898   2.378       .  S
N888        C899   1.325       .  A
C889       C1816   1.567       .  S
Co891      Cl898   2.442   1_565  S
C899       C2164   1.471   1_556  S
C902        N920   1.320   1_554  A
C902        C939   1.515       .  S
C902       C1765   1.521       .  S
N903        N920   1.295       .  A
N903        N925   1.308   1_556  A
N903       Co940   1.960       .  S
C904        N929   1.320       .  A
C904        C942   1.413       .  S
C904        H949   1.082       .  S
H905        C946   1.076       .  S
C906        N930   1.357       .  A
C906        C910   1.485       .  S
C906        H935   1.081   1_545  S
Co907       N925   2.221   1_545  S
Co907       N915   2.202       .  S
Co907       N947   2.246   1_554  S
Co907       N923   2.235       .  S
Co907      Cl951   2.389   1_554  S
N908        C946   1.343       .  A
N908        N915   1.321       .  A
N908       Co909   2.095       .  S
Co909       N912   1.977       .  S
Co909       N929   1.959       .  S
Co909       N916   2.054   1_554  S
Co909      Cl951   2.412   1_554  S
C910        N948   1.323       .  A
C910       C1909   1.469       .  S
N911        N918   1.317       .  A
N911        N941   1.296   1_556  A
N911       Co944   2.002   1_565  S
N912        N930   1.302       .  A
N912        N948   1.296       .  A
N913        C942   1.394       .  A
N913        N923   1.355       .  A
H914        C939   1.079       .  S
N915        N936   1.349       .  A
N916        N934   1.311       .  A
N916        N921   1.307       .  A
C917        N921   1.348       .  A
C917        C945   1.475       .  S
C917       C1993   1.474       .  S
N918        C933   1.347       .  A
N918       Co940   2.096       .  S
C919        N947   1.380       .  A
C919        C922   1.518       .  S
C919        H953   1.081       .  S
C922        N943   1.324       .  A
C922       C1777   1.523       .  S
N923        N929   1.307       .  A
N924        C950   1.335       .  A
N924        N926   1.310   1_565  A
N924       Co940   2.014       .  S
N925        C939   1.382       .  A
N926        N954   1.311       .  A
N926       Co944   2.057       .  S
H927        C950   1.080       .  S
H928        C945   1.080       .  S
N930       Co944   2.087   1_554  S
N931        N943   1.307       .  A
N931        N947   1.321       .  A
N931       Co940   1.998   1_545  S
C932        N936   1.377       .  A
C932        C946   1.456       .  S
C932       C1789   1.542   1_545  S
C933        C952   1.468       .  S
C933        H937   1.074       .  S
N934        C945   1.335       .  A
N934       Co944   2.057       .  S
C938        N954   1.348       .  A
C938        C950   1.436   1_545  S
C938       C2077   1.438       .  S
Co940      Cl951   2.479   1_565  S
N941        C952   1.333   1_554  A
C942       C1753   1.521       .  S
Co944      Cl951   2.419       .  S
C952       C2173   1.449   1_556  S
C955        N973   1.336       .  A
C955        C992   1.453       .  S
C955       C1705   1.441       .  S
N956        N973   1.307       .  A
N956        N978   1.315       .  A
N956       Co993   2.024       .  S
C957        N982   1.376       .  A
C957        C995   1.508       .  S
C957       H1002   1.081       .  S
H958        C999   1.081       .  S
C959        N983   1.334       .  A
C959        C963   1.441       .  S
C959        H988   1.081       .  S
Co960       N978   2.078       .  S
Co960       N968   2.004       .  S
Co960      N1000   2.091       .  S
Co960       N976   1.992       .  S
Co960     Cl1004   2.484       .  S
N961        C999   1.379       .  A
N961        N968   1.317       .  A
N961       Co962   2.212   1_655  S
Co962       N965   2.189       .  S
Co962       N982   2.215       .  S
Co962       N969   2.189       .  S
Co962     Cl1004   2.398   1_455  S
C963       N1001   1.376       .  A
C963       C1681   1.510       .  S
N964        N971   1.310       .  A
N964        N994   1.310       .  A
N964       Co997   2.052   1_655  S
N965        N983   1.317       .  A
N965       N1001   1.345       .  A
N966        C995   1.325   1_655  A
N966        N976   1.304       .  A
H967        C992   1.070       .  S
N968        N989   1.303       .  A
N969        N987   1.315       .  A
N969        N974   1.347       .  A
C970        N974   1.380       .  A
C970        C998   1.440       .  S
C970       C1660   1.520       .  S
N971        C986   1.337       .  A
N971       Co993   2.032       .  S
C972       N1000   1.353       .  A
C972        C975   1.466       .  S
C972       H1006   1.080       .  S
C975        N996   1.332       .  A
C975       C1732   1.453       .  S
N976        N982   1.317   1_655  A
N977       C1003   1.340       .  A
N977        N979   1.310       .  A
N977       Co993   2.038   1_455  S
N978        C992   1.341       .  A
N979       N1007   1.307       .  A
N979       Co997   2.037       .  S
H980       C1003   1.080       .  S
H981        C998   1.082       .  S
N983       Co997   2.041       .  S
N984        N996   1.302       .  A
N984       N1000   1.315       .  A
N984       Co993   2.014       .  S
C985        N989   1.327       .  A
C985        C999   1.510       .  S
C985       C1693   1.527       .  S
C986       C1005   1.453       .  S
C986        H990   1.081       .  S
N987        C998   1.337       .  A
N987       Co997   2.055       .  S
C991       N1007   1.337       .  A
C991       C1003   1.456       .  S
C991       C1717   1.428       .  S
Co993     Cl1004   2.433       .  S
N994       C1005   1.343       .  A
C995       C1672   1.516       .  S
Co997     Cl1004   2.411   1_455  S
C1005      C1744   1.439       .  S
C1008      N1026   1.354       .  A
C1008      C1045   1.441       .  S
C1008      C1708   1.462       .  S
N1009      N1026   1.321       .  A
N1009      N1031   1.307       .  A
N1009     Co1046   2.078   1_565  S
C1010      N1035   1.380       .  A
C1010      C1048   1.517       .  S
C1010      H1055   1.081       .  S
H1011      C1052   1.081       .  S
C1012      N1036   1.315       .  A
C1012      C1016   1.412   1_545  S
C1012      H1041   1.083       .  S
Co1013     N1031   2.030       .  S
Co1013     N1021   2.033       .  S
Co1013     N1053   2.067   1_565  S
Co1013     N1029   1.953   1_565  S
Co1013    Cl1057   2.423   1_565  S
N1014      C1052   1.369       .  A
N1014      N1021   1.326       .  A
N1014     Co1015   2.199   1_565  S
Co1015     N1018   2.249       .  S
Co1015     N1035   2.220       .  S
Co1015     N1022   2.207       .  S
Co1015    Cl1057   2.465       .  S
C1016      N1054   1.398       .  A
C1016      C1588   1.533       .  S
N1017      N1024   1.318       .  A
N1017      N1047   1.311   1_545  A
N1017     Co1050   2.061       .  S
N1018      N1036   1.308       .  A
N1018      N1054   1.360   1_545  A
N1019      C1048   1.311       .  A
N1019      N1029   1.303       .  A
H1020      C1045   1.080       .  S
N1021      N1042   1.307       .  A
N1022      N1040   1.325       .  A
N1022      N1027   1.349       .  A
C1023      N1027   1.380       .  A
C1023      C1051   1.449       .  S
C1023      C1573   1.537       .  S
N1024      C1039   1.349   1_545  A
N1024     Co1046   2.092       .  S
C1025      N1053   1.333       .  A
C1025      C1028   1.446       .  S
C1025      H1059   1.072       .  S
C1028      N1049   1.353       .  A
C1028      C1645   1.476       .  S
N1029      N1035   1.313       .  A
N1030      C1056   1.340       .  A
N1030      N1032   1.305       .  A
N1030     Co1046   2.072       .  S
N1031      C1045   1.334       .  A
N1032      N1060   1.308       .  A
N1032     Co1050   1.997       .  S
H1033      C1056   1.078       .  S
H1034      C1051   1.076       .  S
N1036     Co1050   1.964       .  S
N1037      N1049   1.326       .  A
N1037      N1053   1.318       .  A
N1037     Co1046   2.083       .  S
C1038      N1042   1.325       .  A
C1038      C1052   1.503       .  S
C1038      C1609   1.498       .  S
C1039      C1058   1.470       .  S
C1039      H1043   1.078       .  S
N1040      C1051   1.337       .  A
N1040     Co1050   2.091       .  S
C1044      N1060   1.329       .  A
C1044      C1056   1.469       .  S
C1044      C1621   1.457       .  S
Co1046    Cl1057   2.470       .  S
N1047      C1058   1.338       .  A
C1048      C1597   1.503       .  S
Co1050    Cl1057   2.417       .  S
C1058      C1633   1.478       .  S
C1061      N1079   1.349       .  A
C1061      C1098   1.447       .  S
C1061      C1720   1.433       .  S
N1062      N1079   1.321       .  A
N1062      N1084   1.304       .  A
N1062     Co1099   2.040       .  S
C1063      N1088   1.345       .  A
C1063      C1101   1.453       .  S
C1063      H1108   1.081       .  S
H1064      C1105   1.079       .  S
C1065      N1089   1.377   1_565  A
C1065      C1069   1.512   1_565  S
C1065      H1094   1.081       .  S
Co1066     N1084   2.033   1_545  S
Co1066     N1074   2.060       .  S
Co1066     N1106   2.117       .  S
Co1066     N1082   2.022       .  S
Co1066    Cl1110   2.376       .  S
N1067      C1105   1.334       .  A
N1067      N1074   1.307       .  A
N1067     Co1068   2.024       .  S
Co1068     N1071   2.009       .  S
Co1068     N1088   2.070       .  S
Co1068     N1075   1.933       .  S
Co1068    Cl1110   2.497       .  S
C1069      N1107   1.327       .  A
C1069      C1528   1.523   1_545  S
N1070      N1077   1.313       .  A
N1070      N1100   1.353       .  A
N1070     Co1103   2.228   1_565  S
N1071      N1089   1.313       .  A
N1071      N1107   1.308       .  A
N1072      C1101   1.334       .  A
N1072      N1082   1.308       .  A
H1073      C1098   1.080       .  S
N1074      N1095   1.307       .  A
N1075      N1093   1.316       .  A
N1075      N1080   1.302       .  A
C1076      N1080   1.314       .  A
C1076      C1104   1.525       .  S
C1076      C1501   1.514       .  S
N1077      C1092   1.310       .  A
N1077     Co1099   1.962       .  S
C1078      N1106   1.355       .  A
C1078      C1081   1.480       .  S
C1078      H1112   1.080       .  S
C1081      N1102   1.330       .  A
C1081      C1564   1.480       .  S
N1082      N1088   1.314       .  A
N1083      C1109   1.321       .  A
N1083      N1085   1.319   1_565  A
N1083     Co1099   2.026       .  S
N1084      C1098   1.326       .  A
N1085      N1113   1.345       .  A
N1085     Co1103   2.184       .  S
H1086      C1109   1.074       .  S
H1087      C1104   1.081       .  S
N1089     Co1103   2.211       .  S
N1090      N1102   1.308   1_565  A
N1090      N1106   1.313   1_565  A
N1090     Co1099   2.016       .  S
C1091      N1095   1.349       .  A
C1091      C1105   1.457       .  S
C1091      C1552   1.464       .  S
C1092      C1111   1.411       .  S
C1092      H1096   1.082       .  S
N1093      C1104   1.384       .  A
N1093     Co1103   2.267       .  S
C1097      N1113   1.375       .  A
C1097      C1109   1.425   1_545  S
C1097      C1489   1.495       .  S
Co1099    Cl1110   2.460   1_565  S
N1100      C1111   1.389       .  A
C1101      C1540   1.441       .  S
Co1103    Cl1110   2.365       .  S
C1111      C1513   1.508       .  S
C1114      N1132   1.345       .  A
C1114      C1151   1.470       .  S
C1114      C1624   1.473       .  S
N1115      N1132   1.316       .  A
N1115      N1137   1.309       .  A
N1115     Co1152   2.027       .  S
C1116      N1141   1.324       .  A
C1116      C1154   1.437       .  S
C1116      H1161   1.080       .  S
H1117      C1158   1.055   1_455  S
C1118      N1142   1.380       .  A
C1118      C1122   1.523       .  S
C1118      H1147   1.081       .  S
Co1119     N1137   2.094       .  S
Co1119     N1127   2.046       .  S
Co1119     N1159   2.079       .  S
Co1119     N1135   2.082   1_655  S
Co1119    Cl1163   2.431       .  S
N1120      C1158   1.309       .  A
N1120      N1127   1.312       .  A
N1120     Co1121   2.036   1_655  S
Co1121     N1124   2.027       .  S
Co1121     N1141   2.021       .  S
Co1121     N1128   1.982       .  S
Co1121    Cl1163   2.446   1_455  S
C1122      N1160   1.333   1_655  A
C1122      C1420   1.543       .  S
N1123      N1130   1.304       .  A
N1123      N1153   1.350       .  A
N1123     Co1156   2.230       .  S
N1124      N1142   1.305   1_455  A
N1124      N1160   1.310       .  A
N1125      C1154   1.356       .  A
N1125      N1135   1.324       .  A
H1126      C1151   1.072       .  S
N1127      N1148   1.322       .  A
N1128      N1146   1.320       .  A
N1128      N1133   1.312       .  A
C1129      N1133   1.327       .  A
C1129      C1157   1.513       .  S
C1129      C1441   1.514       .  S
N1130      C1145   1.310       .  A
N1130     Co1152   1.969       .  S
C1131      N1159   1.351       .  A
C1131      C1134   1.474       .  S
C1131      H1165   1.081   1_655  S
C1134      N1155   1.322       .  A
C1134      C1468   1.456       .  S
N1135      N1141   1.312       .  A
N1136      C1162   1.311       .  A
N1136      N1138   1.317       .  A
N1136     Co1152   1.969       .  S
N1137      C1151   1.339       .  A
N1138      N1166   1.350   1_655  A
N1138     Co1156   2.231       .  S
H1139      C1162   1.079       .  S
H1140      C1157   1.081       .  S
N1142     Co1156   2.212       .  S
N1143      N1155   1.300       .  A
N1143      N1159   1.312       .  A
N1143     Co1152   2.009       .  S
C1144      N1148   1.352       .  A
C1144      C1158   1.441       .  S
C1144      C1477   1.452       .  S
C1145      C1164   1.423       .  S
C1145      H1149   1.083       .  S
N1146      C1157   1.377       .  A
N1146     Co1156   2.251   1_455  S
C1150      N1166   1.384   1_655  A
C1150      C1162   1.417       .  S
C1150      C1456   1.503   1_655  S
Co1152    Cl1163   2.449       .  S
N1153      C1164   1.393       .  A
C1154      C1537   1.458       .  S
Co1156    Cl1163   2.366       .  S
C1164      C1429   1.522       .  S
C1167      N1185   1.328       .  A
C1167      C1204   1.481   1_455  S
C1167      C1729   1.482       .  S
N1168      N1185   1.309       .  A
N1168      N1190   1.308       .  A
N1168     Co1205   2.030       .  S
C1169      N1194   1.338       .  A
C1169      C1207   1.446   1_655  S
C1169      H1214   1.075       .  S
H1170      C1211   1.075       .  S
C1171      N1195   1.374   1_565  A
C1171      C1175   1.510   1_565  S
C1171      H1200   1.081       .  S
Co1172     N1190   2.088   1_545  S
Co1172     N1180   2.049   1_455  S
Co1172     N1212   2.060       .  S
Co1172     N1188   2.064   1_455  S
Co1172    Cl1216   2.491       .  S
N1173      C1211   1.341       .  A
N1173      N1180   1.317       .  A
N1173     Co1174   2.078       .  S
Co1174     N1177   1.982       .  S
Co1174     N1194   2.071       .  S
Co1174     N1181   2.028       .  S
Co1174    Cl1216   2.432   1_655  S
C1175      N1213   1.318       .  A
C1175      C1393   1.500   1_545  S
N1176      N1183   1.321       .  A
N1176      N1206   1.342       .  A
N1176     Co1209   2.169   1_565  S
N1177      N1195   1.321       .  A
N1177      N1213   1.307       .  A
N1178      C1207   1.346       .  A
N1178      N1188   1.321   1_455  A
H1179      C1204   1.073       .  S
N1180      N1201   1.315       .  A
N1181      N1199   1.320       .  A
N1181      N1186   1.307       .  A
C1182      N1186   1.326       .  A
C1182      C1210   1.506   1_655  S
C1182      C1405   1.508   1_655  S
N1183      C1198   1.325       .  A
N1183     Co1205   2.052       .  S
C1184      N1212   1.343       .  A
C1184      C1187   1.483       .  S
C1184      H1218   1.080       .  S
C1187      N1208   1.335       .  A
C1187      C1549   1.453       .  S
N1188      N1194   1.318       .  A
N1189      C1215   1.313       .  A
N1189      N1191   1.306       .  A
N1189     Co1205   1.947   1_545  S
N1190      C1204   1.350   1_455  A
N1191      N1219   1.354       .  A
N1191     Co1209   2.221       .  S
H1192      C1215   1.082       .  S
H1193      C1210   1.081       .  S
N1195     Co1209   2.229   1_655  S
N1196      N1208   1.306       .  A
N1196      N1212   1.297       .  A
N1196     Co1205   2.017   1_545  S
C1197      N1201   1.343       .  A
C1197      C1211   1.450       .  S
C1197      C1636   1.466   1_545  S
C1198      C1217   1.434       .  S
C1198      H1202   1.080       .  S
N1199      C1210   1.370   1_655  A
N1199     Co1209   2.198   1_655  S
C1203      N1219   1.392       .  A
C1203      C1215   1.403       .  S
C1203      C1372   1.509       .  S
Co1205    Cl1216   2.344   1_565  S
N1206      C1217   1.373       .  A
C1207      C1465   1.462       .  S
Co1209    Cl1216   2.457       .  S
C1217      C1381   1.497       .  S
C1220      N1238   1.337       .  A
C1220      C1257   1.453       .  S
C1220      C1561   1.449       .  S
N1221      N1238   1.310       .  A
N1221      N1243   1.318       .  A
N1221     Co1258   2.035       .  S
C1222      N1247   1.383   1_655  A
C1222      C1260   1.524       .  S
C1222      H1267   1.078       .  S
H1223      C1264   1.081   1_565  S
C1224      N1248   1.315       .  A
C1224      C1228   1.416       .  S
C1224      H1253   1.082       .  S
Co1225     N1243   2.069       .  S
Co1225     N1233   1.957       .  S
Co1225     N1265   2.017       .  S
Co1225     N1241   1.990       .  S
Co1225    Cl1269   2.480       .  S
N1226      C1264   1.379       .  A
N1226      N1233   1.315       .  A
N1226     Co1227   2.239       .  S
Co1227     N1230   2.203   1_545  S
Co1227     N1247   2.240       .  S
Co1227     N1234   2.174   1_455  S
Co1227    Cl1269   2.379       .  S
C1228      N1266   1.383       .  A
C1228      C1357   1.494       .  S
N1229      N1236   1.310       .  A
N1229      N1259   1.309       .  A
N1229     Co1262   2.072   1_455  S
N1230      N1248   1.312       .  A
N1230      N1266   1.348       .  A
N1231      C1260   1.325   1_455  A
N1231      N1241   1.308       .  A
H1232      C1257   1.081       .  S
N1233      N1254   1.295       .  A
N1234      N1252   1.317       .  A
N1234      N1239   1.345       .  A
C1235      N1239   1.377       .  A
C1235      C1263   1.446       .  S
C1235      C1321   1.518       .  S
N1236      C1251   1.333       .  A
N1236     Co1258   2.030   1_565  S
C1237      N1265   1.313       .  A
C1237      C1240   1.420   1_455  S
C1237      H1271   1.072       .  S
C1240      N1261   1.335   1_655  A
C1240      C1480   1.409       .  S
N1241      N1247   1.308       .  A
N1242      C1268   1.321       .  A
N1242      N1244   1.306       .  A
N1242     Co1258   2.020   1_655  S
N1243      C1257   1.345       .  A
N1244      N1272   1.316       .  A
N1244     Co1262   2.033   1_545  S
H1245      C1268   1.079       .  S
H1246      C1263   1.079   1_565  S
N1248     Co1262   1.969   1_455  S
N1249      N1261   1.318       .  A
N1249      N1265   1.317       .  A
N1249     Co1258   2.040       .  S
C1250      N1254   1.317       .  A
C1250      C1264   1.518       .  S
C1250      C1345   1.513       .  S
C1251      C1270   1.469       .  S
C1251      H1255   1.080       .  S
N1252      C1263   1.330       .  A
N1252     Co1262   2.061   1_545  S
C1256      N1272   1.341       .  A
C1256      C1268   1.452       .  S
C1256      C1648   1.458       .  S
Co1258    Cl1269   2.435       .  S
N1259      C1270   1.344       .  A
C1260      C1333   1.538       .  S
Co1262    Cl1269   2.399   1_665  S
C1270      C1741   1.475       .  S
C1273      C1274   1.391       .  D
C1273      C1408   1.538       .  S
C1273      C1453   1.528       .  S
C1274      C2272   1.538       .  S
C1274      C2317   1.536       .  S
C1275      C1276   1.416       .  D
C1275      C1792   1.590       .  S
C1275      C1888   1.558       .  S
C1276      C1396   1.527       .  S
C1276      C1585   1.560       .  S
C1277      C1278   1.385       .  D
C1277      C2221   1.540       .  S
C1277      C2305   1.531       .  S
C1278      C1384   1.513       .  S
C1278      C1669   1.528       .  S
C1279      C1280   1.394       .  D
C1279      C1840   1.534       .  S
C1279      C1876   1.534       .  S
C1280      C1369   1.538   1_565  S
C1280      C1525   1.542       .  S
C1281      C1282   1.399       .  D
C1281      C2656   1.537       .  S
C1281      C2980   1.550       .  S
C1282      C1444   1.537       .  S
C1282      C1504   1.547       .  S
C1283      C1284   1.393       .  D
C1283      C2752   1.525       .  S
C1283      C2992   1.530       .  S
C1284      C1432   1.542       .  S
C1284      C1576   1.538       .  S
C1285      C1286   1.395       .  D
C1285      C2644   1.544       .  S
C1285      C2812   1.560       .  S
C1286      C1516   1.541       .  S
C1286      C1657   1.553       .  S
C1287      C1288   1.384       .  D
C1287      C1825   1.534       .  S
C1287      C2017   1.527       .  S
C1288      C1348   1.525       .  S
C1288      C1492   1.517       .  S
C1289      C1290   1.400       .  D
C1289      C2260   1.537       .  S
C1289      C2389   1.556       .  S
C1290      C1813   1.580       .  S
C1290      C1936   1.562       .  S
C1291      C1292   1.392       .  D
C1291      C1804   1.527       .  S
C1291      C2089   1.543       .  S
C1292      C2200   1.549       .  S
C1292      C2380   1.549       .  S
C1293      C1294   1.389       .  D
C1293      C2821   1.517       .  S
C1293      C2908   1.532       .  S
C1294      C1861   1.531       .  S
C1294      C2116   1.536       .  S
C1295      C1296   1.375       .  D
C1295      C2893   1.527       .  S
C1295      C2968   1.516       .  S
C1296      C1852   1.533       .  S
C1296      C1960   1.523       .  S
C1297      C1298   1.393       .  D
C1297      C2704   1.520       .  S
C1297      C2956   1.519       .  S
C1298      C1948   1.525       .  S
C1298      C2032   1.548       .  S
C1299      C1300   1.392       .  D
C1299      C2248   1.546       .  S
C1299      C2449   1.547       .  S
C1300      C1336   1.564       .  S
C1300      C1417   1.550       .  S
C1301      C1302   1.389       .  D
C1301      C2233   1.524       .  S
C1301      C2524   1.536       .  S
C1302      C1756   1.555       .  S
C1302      C1924   1.534       .  S
C1303      C1304   1.382       .  D
C1303      C2632   1.519       .  S
C1303      C2884   1.520       .  S
C1304      C2293   1.533       .  S
C1304      C2368   1.541       .  S
C1305      C1306   1.389       .  D
C1305      C2764   1.525       .  S
C1305      C2869   1.513       .  S
C1306      C2281   1.545       .  S
C1306      C2548   1.560       .  S
C1307      C1308   1.393       .  D
C1307      C2620   1.538       .  S
C1307      C2692   1.550       .  S
C1308      C2356   1.549       .  S
C1308      C2440   1.556       .  S
C1309      C1310   1.379       .  D
C1309      C2209   1.519       .  S
C1309      C2464   1.514       .  S
C1310      C1360   1.526       .  S
C1310      C1684   1.532       .  S
C1311      C1312   1.387       .  D
C1311      C1780   1.537       .  S
C1311      C2005   1.517       .  S
C1312      C1324   1.522       .  S
C1312      C1600   1.544       .  S
C1313      C1314   1.383       .  D
C1313      C2188   1.540       .  S
C1313      C2536   1.525       .  S
C1314      C1768   1.518       .  S
C1314      C2104   1.533       .  S
C1315      C1316   1.386       .  D
C1315      C2680   1.526       .  S
C1315      C2740   1.529       .  S
C1316      C2473   1.533       .  S
C1316      C2560   1.541       .  S
C1317      C1318   1.384       .  D
C1317      C2728   1.550       .  S
C1317      C2785   1.550       .  S
C1318      C1612   1.519       .  S
C1318      C1696   1.526       .  S
C1319      C1320   1.400       .  D
C1319      C2668   1.552       .  S
C1319      C2800   1.545       .  S
C1320      C2044   1.558       .  S
C1320      C2128   1.541       .  S
C1321      C1322   1.412       .  A
C1321      C1326   1.416       .  A
C1322      H1327   1.084   1_545  S
C1322      C1323   1.408       .  A
C1323      C1324   1.411       .  A
C1323      C1330   1.444   1_545  S
C1324      C1325   1.415       .  A
C1325      H1328   1.084       .  S
C1325      C1326   1.423       .  A
C1326      C1329   1.439       .  S
C1329      N1331   1.157       .  T
C1330      N1332   1.157       .  T
C1333      C1334   1.411   1_655  A
C1333      C1338   1.421       .  A
C1334      H1339   1.086       .  S
C1334      C1335   1.412       .  A
C1335      C1336   1.424   1_455  A
C1335      C1342   1.439       .  S
C1336      C1337   1.427       .  A
C1337      H1340   1.083       .  S
C1337      C1338   1.443       .  A
C1338      C1341   1.440       .  S
C1341      N1343   1.157       .  T
C1342      N1344   1.156       .  T
C1345      C1346   1.408   1_545  A
C1345      C1350   1.431       .  A
C1346      H1351   1.084       .  S
C1346      C1347   1.427       .  A
C1347      C1348   1.425   1_565  A
C1347      C1354   1.438       .  S
C1348      C1349   1.395       .  A
C1349      H1352   1.086       .  S
C1349      C1350   1.396       .  A
C1350      C1353   1.450       .  S
C1353      N1355   1.157       .  T
C1354      N1356   1.157       .  T
C1357      C1358   1.409       .  A
C1357      C1362   1.419   1_455  A
C1358      H1363   1.085       .  S
C1358      C1359   1.416       .  A
C1359      C1360   1.417       .  A
C1359      C1366   1.440       .  S
C1360      C1361   1.408   1_455  A
C1361      H1364   1.084       .  S
C1361      C1362   1.412       .  A
C1362      C1365   1.444       .  S
C1365      N1367   1.157       .  T
C1366      N1368   1.157       .  T
C1369      C1370   1.407       .  A
C1369      C1374   1.421   1_545  A
C1370      H1375   1.083       .  S
C1370      C1371   1.417       .  A
C1371      C1372   1.422       .  A
C1371      C1378   1.444       .  S
C1372      C1373   1.415   1_545  A
C1373      H1376   1.084       .  S
C1373      C1374   1.425       .  A
C1374      C1377   1.442       .  S
C1377      N1379   1.157       .  T
C1378      N1380   1.157       .  T
C1381      C1382   1.406   1_455  A
C1381      C1386   1.419       .  A
C1382      H1387   1.084       .  S
C1382      C1383   1.417       .  A
C1383      C1384   1.420   1_655  A
C1383      C1390   1.442       .  S
C1384      C1385   1.399       .  A
C1385      H1388   1.080       .  S
C1385      C1386   1.402       .  A
C1386      C1389   1.445       .  S
C1389      N1391   1.157       .  T
C1390      N1392   1.157       .  T
C1393      C1394   1.410   1_565  A
C1393      C1398   1.417       .  A
C1394      H1399   1.085       .  S
C1394      C1395   1.410       .  A
C1395      C1396   1.421   1_545  A
C1395      C1402   1.445       .  S
C1396      C1397   1.414       .  A
C1397      H1400   1.084       .  S
C1397      C1398   1.422       .  A
C1398      C1401   1.440       .  S
C1401      N1403   1.156       .  T
C1402      N1404   1.158       .  T
C1405      C1406   1.404       .  A
C1405      C1410   1.421   1_455  A
C1406      H1411   1.085       .  S
C1406      C1407   1.422       .  A
C1407      C1408   1.430       .  A
C1407      C1414   1.436       .  S
C1408      C1409   1.407   1_455  A
C1409      H1412   1.085       .  S
C1409      C1410   1.405       .  A
C1410      C1413   1.445       .  S
C1413      N1415   1.157       .  T
C1414      N1416   1.156       .  T
C1417      C1418   1.425       .  A
C1417      C1422   1.416   1_655  A
C1418      H1423   1.084       .  S
C1418      C1419   1.436       .  A
C1419      C1420   1.418       .  A
C1419      C1426   1.437       .  S
C1420      C1421   1.420   1_655  A
C1421      H1424   1.085       .  S
C1421      C1422   1.413       .  A
C1422      C1425   1.442       .  S
C1425      N1427   1.157       .  T
C1426      N1428   1.157       .  T
C1429      C1430   1.416       .  A
C1429      C1434   1.422       .  A
C1430      H1435   1.086       .  S
C1430      C1431   1.409       .  A
C1431      C1432   1.414       .  A
C1431      C1438   1.444       .  S
C1432      C1433   1.417       .  A
C1433      H1436   1.084       .  S
C1433      C1434   1.432       .  A
C1434      C1437   1.440       .  S
C1437      N1439   1.157       .  T
C1438      N1440   1.157       .  T
C1441      C1442   1.409       .  A
C1441      C1446   1.417       .  A
C1442      H1447   1.086       .  S
C1442      C1443   1.409       .  A
C1443      C1444   1.418       .  A
C1443      C1450   1.440       .  S
C1444      C1445   1.417       .  A
C1445      H1448   1.084       .  S
C1445      C1446   1.428       .  A
C1446      C1449   1.441       .  S
C1449      N1451   1.157       .  T
C1450      N1452   1.157       .  T
C1453      C1454   1.403   1_455  A
C1453      C1458   1.429       .  A
C1454      H1459   1.084       .  S
C1454      C1455   1.402       .  A
C1455      C1456   1.420   1_655  A
C1455      C1462   1.446       .  S
C1456      C1457   1.404       .  A
C1457      H1460   1.084       .  S
C1457      C1458   1.423       .  A
C1458      C1461   1.437       .  S
C1461      N1463   1.157       .  T
C1462      N1464   1.157       .  T
C1465      C1466   1.387   1_455  A
C1465      C1470   1.396       .  A
C1466      H1471   1.084       .  S
C1466      C1467   1.386       .  A
C1467      C1468   1.429       .  A
C1467      C1474   1.447       .  S
C1468      C1469   1.404   1_655  A
C1469      H1472   1.083       .  S
C1469      C1470   1.398       .  A
C1470      C1473   1.435       .  S
C1473      N1475   1.156       .  T
C1474      N1476   1.157       .  T
C1477      C1478   1.401       .  A
C1477      C1482   1.396       .  A
C1478      H1483   1.067   1_655  S
C1478      C1479   1.356   1_655  A
C1479      C1480   1.396   1_455  A
C1479      C1486   1.454       .  S
C1480      C1481   1.400       .  A
C1481      H1484   1.081       .  S
C1481      C1482   1.390       .  A
C1482      C1485   1.437       .  S
C1485      N1487   1.155       .  T
C1486      N1488   1.157       .  T
C1489      C1490   1.406   1_545  A
C1489      C1494   1.416       .  A
C1490      H1495   1.085       .  S
C1490      C1491   1.406       .  A
C1491      C1492   1.415   1_565  A
C1491      C1498   1.441       .  S
C1492      C1493   1.410       .  A
C1493      H1496   1.084       .  S
C1493      C1494   1.418       .  A
C1494      C1497   1.443       .  S
C1497      N1499   1.157       .  T
C1498      N1500   1.157       .  T
C1501      C1502   1.409       .  A
C1501      C1506   1.425       .  A
C1502      H1507   1.084       .  S
C1502      C1503   1.429       .  A
C1503      C1504   1.429       .  A
C1503      C1510   1.436       .  S
C1504      C1505   1.407       .  A
C1505      H1508   1.084       .  S
C1505      C1506   1.409       .  A
C1506      C1509   1.446       .  S
C1509      N1511   1.157       .  T
C1510      N1512   1.156       .  T
C1513      C1514   1.409       .  A
C1513      C1518   1.418       .  A
C1514      H1519   1.087       .  S
C1514      C1515   1.409       .  A
C1515      C1516   1.419       .  A
C1515      C1522   1.439       .  S
C1516      C1517   1.418       .  A
C1517      H1520   1.084       .  S
C1517      C1518   1.429       .  A
C1518      C1521   1.441       .  S
C1521      N1523   1.157       .  T
C1522      N1524   1.156       .  T
C1525      C1526   1.404   1_565  A
C1525      C1530   1.424       .  A
C1526      H1531   1.083       .  S
C1526      C1527   1.407       .  A
C1527      C1528   1.424   1_545  A
C1527      C1534   1.446       .  S
C1528      C1529   1.414       .  A
C1529      H1532   1.084       .  S
C1529      C1530   1.433       .  A
C1530      C1533   1.440       .  S
C1533      N1535   1.157       .  T
C1534      N1536   1.157       .  T
C1537      C1538   1.397       .  A
C1537      C1542   1.415       .  A
C1538      H1543   1.084       .  S
C1538      C1539   1.387       .  A
C1539      C1540   1.406       .  A
C1539      C1546   1.441       .  S
C1540      C1541   1.395       .  A
C1541      H1544   1.086       .  S
C1541      C1542   1.393       .  A
C1542      C1545   1.444       .  S
C1545      N1547   1.157       .  T
C1546      N1548   1.155       .  T
C1549      C1550   1.420       .  A
C1549      C1554   1.414       .  A
C1550      H1555   1.086       .  S
C1550      C1551   1.394       .  A
C1551      C1552   1.399       .  A
C1551      C1558   1.445   1_545  S
C1552      C1553   1.402       .  A
C1553      H1556   1.084       .  S
C1553      C1554   1.399       .  A
C1554      C1557   1.442       .  S
C1557      N1559   1.157       .  T
C1558      N1560   1.157       .  T
C1561      C1562   1.386       .  A
C1561      C1566   1.411       .  A
C1562      H1567   1.085       .  S
C1562      C1563   1.390       .  A
C1563      C1564   1.427       .  A
C1563      C1570   1.445   1_545  S
C1564      C1565   1.403       .  A
C1565      H1568   1.084       .  S
C1565      C1566   1.402       .  A
C1566      C1569   1.444       .  S
C1569      N1571   1.157       .  T
C1570      N1572   1.157       .  T
C1573      C1574   1.415       .  A
C1573      C1578   1.427       .  A
C1574      H1579   1.084       .  S
C1574      C1575   1.432       .  A
C1575      C1576   1.422       .  A
C1575      C1582   1.441       .  S
C1576      C1577   1.403       .  A
C1577      H1580   1.083       .  S
C1577      C1578   1.413       .  A
C1578      C1581   1.444       .  S
C1581      N1583   1.157       .  T
C1582      N1584   1.157       .  T
C1585      C1586   1.422       .  A
C1585      C1590   1.422   1_565  A
C1586      H1591   1.083       .  S
C1586      C1587   1.437       .  A
C1587      C1588   1.421       .  A
C1587      C1594   1.438       .  S
C1588      C1589   1.414   1_565  A
C1589      H1592   1.086       .  S
C1589      C1590   1.413       .  A
C1590      C1593   1.442       .  S
C1593      N1595   1.157       .  T
C1594      N1596   1.157       .  T
C1597      C1598   1.416       .  A
C1597      C1602   1.419       .  A
C1598      H1603   1.084       .  S
C1598      C1599   1.424       .  A
C1599      C1600   1.418       .  A
C1599      C1606   1.442       .  S
C1600      C1601   1.412       .  A
C1601      H1604   1.082       .  S
C1601      C1602   1.415       .  A
C1602      C1605   1.444       .  S
C1605      N1607   1.157   1_545  T
C1606      N1608   1.157       .  T
C1609      C1610   1.411       .  A
C1609      C1614   1.408       .  A
C1610      H1615   1.085       .  S
C1610      C1611   1.404       .  A
C1611      C1612   1.410       .  A
C1611      C1618   1.443       .  S
C1612      C1613   1.414       .  A
C1613      H1616   1.082       .  S
C1613      C1614   1.418       .  A
C1614      C1617   1.439       .  S
C1617      N1619   1.156       .  T
C1618      N1620   1.157       .  T
C1621      C1622   1.406       .  A
C1621      C1626   1.412       .  A
C1622      H1627   1.083       .  S
C1622      C1623   1.395       .  A
C1623      C1624   1.399       .  A
C1623      C1630   1.438       .  S
C1624      C1625   1.403       .  A
C1625      H1628   1.085       .  S
C1625      C1626   1.394       .  A
C1626      C1629   1.444       .  S
C1629      N1631   1.157       .  T
C1630      N1632   1.156       .  T
C1633      C1634   1.410       .  A
C1633      C1638   1.397       .  A
C1634      H1639   1.086       .  S
C1634      C1635   1.402       .  A
C1635      C1636   1.410       .  A
C1635      C1642   1.439   1_565  S
C1636      C1637   1.404       .  A
C1637      H1640   1.072       .  S
C1637      C1638   1.387       .  A
C1638      C1641   1.436       .  S
C1641      N1643   1.155       .  T
C1642      N1644   1.156       .  T
C1645      C1646   1.405       .  A
C1645      C1650   1.407       .  A
C1646      H1651   1.082       .  S
C1646      C1647   1.396       .  A
C1647      C1648   1.412       .  A
C1647      C1654   1.442       .  S
C1648      C1649   1.402       .  A
C1649      H1652   1.081       .  S
C1649      C1650   1.385       .  A
C1650      C1653   1.434       .  S
C1653      N1655   1.154       .  T
C1654      N1656   1.156       .  T
C1657      C1658   1.415       .  A
C1657      C1662   1.431       .  A
C1658      H1663   1.084       .  S
C1658      C1659   1.428       .  A
C1659      C1660   1.421       .  A
C1659      C1666   1.442       .  S
C1660      C1661   1.401       .  A
C1661      H1664   1.085       .  S
C1661      C1662   1.418       .  A
C1662      C1665   1.437       .  S
C1665      N1667   1.157       .  T
C1666      N1668   1.157       .  T
C1669      C1670   1.396       .  A
C1669      C1674   1.426       .  A
C1670      H1675   1.081   1_455  S
C1670      C1671   1.397       .  A
C1671      C1672   1.426       .  A
C1671      C1678   1.448   1_455  S
C1672      C1673   1.410       .  A
C1673      H1676   1.084       .  S
C1673      C1674   1.428       .  A
C1674      C1677   1.440       .  S
C1677      N1679   1.157       .  T
C1678      N1680   1.157       .  T
C1681      C1682   1.406       .  A
C1681      C1686   1.418   1_455  A
C1682      H1687   1.085       .  S
C1682      C1683   1.418       .  A
C1683      C1684   1.423       .  A
C1683      C1690   1.441       .  S
C1684      C1685   1.409   1_455  A
C1685      H1688   1.084       .  S
C1685      C1686   1.418       .  A
C1686      C1689   1.444       .  S
C1689      N1691   1.157       .  T
C1690      N1692   1.157       .  T
C1693      C1694   1.412       .  A
C1693      C1698   1.429       .  A
C1694      H1699   1.083       .  S
C1694      C1695   1.432       .  A
C1695      C1696   1.425       .  A
C1695      C1702   1.438       .  S
C1696      C1697   1.394       .  A
C1697      H1700   1.082       .  S
C1697      C1698   1.396       .  A
C1698      C1701   1.447       .  S
C1701      N1703   1.157       .  T
C1702      N1704   1.157       .  T
C1705      C1706   1.403       .  A
C1705      C1710   1.401       .  A
C1706      H1711   1.081       .  S
C1706      C1707   1.394       .  A
C1707      C1708   1.403       .  A
C1707      C1714   1.440       .  S
C1708      C1709   1.405       .  A
C1709      H1712   1.083       .  S
C1709      C1710   1.393       .  A
C1710      C1713   1.444       .  S
C1713      N1715   1.157       .  T
C1714      N1716   1.156       .  T
C1717      C1718   1.401       .  A
C1717      C1722   1.406       .  A
C1718      H1723   1.084       .  S
C1718      C1719   1.394       .  A
C1719      C1720   1.402       .  A
C1719      C1726   1.443       .  S
C1720      C1721   1.398       .  A
C1721      H1724   1.087       .  S
C1721      C1722   1.373       .  A
C1722      C1725   1.447       .  S
C1725      N1727   1.157       .  T
C1726      N1728   1.157       .  T
C1729      C1730   1.406   1_455  A
C1729      C1734   1.422       .  A
C1730      H1735   1.080       .  S
C1730      C1731   1.408       .  A
C1731      C1732   1.409       .  A
C1731      C1738   1.442       .  S
C1732      C1733   1.399   1_655  A
C1733      H1736   1.083       .  S
C1733      C1734   1.402       .  A
C1734      C1737   1.444       .  S
C1737      N1739   1.157       .  T
C1738      N1740   1.157       .  T
C1741      C1742   1.415   1_455  A
C1741      C1746   1.409       .  A
C1742      H1747   1.084       .  S
C1742      C1743   1.380       .  A
C1743      C1744   1.393       .  A
C1743      C1750   1.443       .  S
C1744      C1745   1.405   1_655  A
C1745      H1748   1.084       .  S
C1745      C1746   1.396       .  A
C1746      C1749   1.444       .  S
C1749      N1751   1.158       .  T
C1750      N1752   1.156       .  T
C1753      C1754   1.416   1_554  A
C1753      C1758   1.419       .  A
C1754      H1759   1.085       .  S
C1754      C1755   1.424       .  A
C1755      C1756   1.421   1_556  A
C1755      C1762   1.440       .  S
C1756      C1757   1.418       .  A
C1757      H1760   1.083       .  S
C1757      C1758   1.425       .  A
C1758      C1761   1.442       .  S
C1761      N1763   1.157       .  T
C1762      N1764   1.157       .  T
C1765      C1766   1.416   1_554  A
C1765      C1770   1.415       .  A
C1766      H1771   1.085       .  S
C1766      C1767   1.390       .  A
C1767      C1768   1.399   1_556  A
C1767      C1774   1.443       .  S
C1768      C1769   1.424       .  A
C1769      H1772   1.083       .  S
C1769      C1770   1.433       .  A
C1770      C1773   1.440       .  S
C1773      N1775   1.157       .  T
C1774      N1776   1.157       .  T
C1777      C1778   1.408       .  A
C1777      C1782   1.426       .  A
C1778      H1783   1.082       .  S
C1778      C1779   1.429       .  A
C1779      C1780   1.425       .  A
C1779      C1786   1.440       .  S
C1780      C1781   1.403       .  A
C1781      H1784   1.083       .  S
C1781      C1782   1.408       .  A
C1782      C1785   1.446   1_545  S
C1785      N1787   1.157       .  T
C1786      N1788   1.157       .  T
C1789      C1790   1.408       .  A
C1789      C1794   1.413       .  A
C1790      H1795   1.083       .  S
C1790      C1791   1.435       .  A
C1791      C1792   1.435       .  A
C1791      C1798   1.440       .  S
C1792      C1793   1.405       .  A
C1793      H1796   1.068       .  S
C1793      C1794   1.430       .  A
C1794      C1797   1.439       .  S
C1797      N1799   1.157       .  T
C1798      N1800   1.157       .  T
C1801      C1802   1.411   1_556  A
C1801      C1806   1.424       .  A
C1802      H1807   1.083       .  S
C1802      C1803   1.426       .  A
C1803      C1804   1.424       .  A
C1803      C1810   1.441       .  S
C1804      C1805   1.397   1_554  A
C1805      H1808   1.084       .  S
C1805      C1806   1.406       .  A
C1806      C1809   1.445       .  S
C1809      N1811   1.157       .  T
C1810      N1812   1.157       .  T
C1813      C1814   1.405       .  A
C1813      C1818   1.433       .  A
C1814      H1819   1.070   1_556  S
C1814      C1815   1.413       .  A
C1815      C1816   1.428       .  A
C1815      C1822   1.448   1_556  S
C1816      C1817   1.425       .  A
C1817      H1820   1.083       .  S
C1817      C1818   1.453       .  A
C1818      C1821   1.439       .  S
C1821      N1823   1.157       .  T
C1822      N1824   1.158       .  T
C1825      C1826   1.412       .  A
C1825      C1830   1.417   1_545  A
C1826      H1831   1.083       .  S
C1826      C1827   1.423       .  A
C1827      C1828   1.419       .  A
C1827      C1834   1.444       .  S
C1828      C1829   1.410   1_545  A
C1829      H1832   1.085       .  S
C1829      C1830   1.412       .  A
C1830      C1833   1.441       .  S
C1833      N1835   1.157       .  T
C1834      N1836   1.157       .  T
C1837      C1838   1.419   1_565  A
C1837      C1842   1.416       .  A
C1838      H1843   1.085       .  S
C1838      C1839   1.402       .  A
C1839      C1840   1.410   1_545  A
C1839      C1846   1.445       .  S
C1840      C1841   1.421       .  A
C1841      H1844   1.084       .  S
C1841      C1842   1.433       .  A
C1842      C1845   1.440       .  S
C1845      N1847   1.157       .  T
C1846      N1848   1.158       .  T
C1849      C1850   1.420       .  A
C1849      C1854   1.417       .  A
C1850      H1855   1.083       .  S
C1850      C1851   1.404       .  A
C1851      C1852   1.405       .  A
C1851      C1858   1.443       .  S
C1852      C1853   1.424       .  A
C1853      H1856   1.082       .  S
C1853      C1854   1.434       .  A
C1854      C1857   1.440       .  S
C1857      N1859   1.157       .  T
C1858      N1860   1.157       .  T
C1861      C1862   1.411       .  A
C1861      C1866   1.420       .  A
C1862      H1867   1.083       .  S
C1862      C1863   1.419       .  A
C1863      C1864   1.415       .  A
C1863      C1870   1.443       .  S
C1864      C1865   1.409       .  A
C1865      H1868   1.084       .  S
C1865      C1866   1.419       .  A
C1866      C1869   1.441       .  S
C1869      N1871   1.157       .  T
C1870      N1872   1.157       .  T
C1873      C1874   1.413   1_545  A
C1873      C1878   1.420       .  A
C1874      H1879   1.084       .  S
C1874      C1875   1.423       .  A
C1875      C1876   1.421       .  A
C1875      C1882   1.442       .  S
C1876      C1877   1.408   1_565  A
C1877      H1880   1.081       .  S
C1877      C1878   1.413       .  A
C1878      C1881   1.445       .  S
C1881      N1883   1.157       .  T
C1882      N1884   1.157       .  T
C1885      C1886   1.423       .  A
C1885      C1890   1.429       .  A
C1886      H1891   1.082       .  S
C1886      C1887   1.447       .  A
C1887      C1888   1.429       .  A
C1887      C1894   1.439       .  S
C1888      C1889   1.397       .  A
C1889      H1892   1.080   1_565  S
C1889      C1890   1.403       .  A
C1890      C1893   1.449   1_565  S
C1893      N1895   1.158       .  T
C1894      N1896   1.157       .  T
C1897      C1898   1.405       .  A
C1897      C1902   1.408       .  A
C1898      H1903   1.085       .  S
C1898      C1899   1.402       .  A
C1899      C1900   1.411       .  A
C1899      C1906   1.442       .  S
C1900      C1901   1.403       .  A
C1901      H1904   1.087       .  S
C1901      C1902   1.379       .  A
C1902      C1905   1.449       .  S
C1905      N1907   1.157       .  T
C1906      N1908   1.157       .  T
C1909      C1910   1.402   1_545  A
C1909      C1914   1.431       .  A
C1910      H1915   1.084       .  S
C1910      C1911   1.402       .  A
C1911      C1912   1.413       .  A
C1911      C1918   1.442       .  S
C1912      C1913   1.384   1_565  A
C1913      H1916   1.086       .  S
C1913      C1914   1.387       .  A
C1914      C1917   1.449       .  S
C1917      N1919   1.157       .  T
C1918      N1920   1.157       .  T
C1921      C1922   1.411   1_554  A
C1921      C1926   1.422       .  A
C1922      H1927   1.084       .  S
C1922      C1923   1.422       .  A
C1923      C1924   1.423   1_556  A
C1923      C1930   1.442       .  S
C1924      C1925   1.406       .  A
C1925      H1928   1.084       .  S
C1925      C1926   1.416       .  A
C1926      C1929   1.443       .  S
C1929      N1931   1.157       .  T
C1930      N1932   1.157       .  T
C1933      C1934   1.428       .  A
C1933      C1938   1.421       .  A
C1934      H1939   1.083   1_556  S
C1934      C1935   1.408       .  A
C1935      C1936   1.414       .  A
C1935      C1942   1.443   1_556  S
C1936      C1937   1.433       .  A
C1937      H1940   1.083       .  S
C1937      C1938   1.450       .  A
C1938      C1941   1.438       .  S
C1941      N1943   1.157       .  T
C1942      N1944   1.157       .  T
C1945      C1946   1.410       .  A
C1945      C1950   1.424       .  A
C1946      H1951   1.084       .  S
C1946      C1947   1.425       .  A
C1947      C1948   1.424       .  A
C1947      C1954   1.441       .  S
C1948      C1949   1.399       .  A
C1949      H1952   1.085       .  S
C1949      C1950   1.407       .  A
C1950      C1953   1.444       .  S
C1953      N1955   1.157       .  T
C1954      N1956   1.157       .  T
C1957      C1958   1.420       .  A
C1957      C1962   1.412       .  A
C1958      H1963   1.084       .  S
C1958      C1959   1.402       .  A
C1959      C1960   1.404       .  A
C1959      C1966   1.444       .  S
C1960      C1961   1.422       .  A
C1961      H1964   1.082       .  S
C1961      C1962   1.429       .  A
C1962      C1965   1.439       .  S
C1965      N1967   1.157       .  T
C1966      N1968   1.157       .  T
C1969      C1970   1.391       .  A
C1969      C1974   1.413       .  A
C1970      H1975   1.086       .  S
C1970      C1971   1.389       .  A
C1971      C1972   1.416       .  A
C1971      C1978   1.446       .  S
C1972      C1973   1.392       .  A
C1973      H1976   1.085       .  S
C1973      C1974   1.390       .  A
C1974      C1977   1.447       .  S
C1977      N1979   1.157       .  T
C1978      N1980   1.157       .  T
C1981      C1982   1.399       .  A
C1981      C1986   1.393   1_556  A
C1982      H1987   1.076       .  S
C1982      C1983   1.377       .  A
C1983      C1984   1.396       .  A
C1983      C1990   1.444       .  S
C1984      C1985   1.411   1_556  A
C1985      H1988   1.085       .  S
C1985      C1986   1.374       .  A
C1986      C1989   1.447       .  S
C1989      N1991   1.157       .  T
C1990      N1992   1.157       .  T
C1993      C1994   1.408       .  A
C1993      C1998   1.409       .  A
C1994      H1999   1.087       .  S
C1994      C1995   1.389   1_556  A
C1995      C1996   1.411       .  A
C1995      C2002   1.446       .  S
C1996      C1997   1.409       .  A
C1997      H2000   1.084       .  S
C1997      C1998   1.393   1_554  A
C1998      C2001   1.442       .  S
C2001      N2003   1.157       .  T
C2002      N2004   1.157       .  T
C2005      C2006   1.415       .  A
C2005      C2010   1.413       .  A
C2006      H2011   1.084       .  S
C2006      C2007   1.420       .  A
C2007      C2008   1.412       .  A
C2007      C2014   1.442   1_545  S
C2008      C2009   1.409       .  A
C2009      H2012   1.085       .  S
C2009      C2010   1.403       .  A
C2010      C2013   1.443       .  S
C2013      N2015   1.157       .  T
C2014      N2016   1.157       .  T
C2017      C2018   1.398   1_545  A
C2017      C2022   1.422       .  A
C2018      H2023   1.083       .  S
C2018      C2019   1.406       .  A
C2019      C2020   1.424   1_565  A
C2019      C2026   1.445       .  S
C2020      C2021   1.412       .  A
C2021      H2024   1.084       .  S
C2021      C2022   1.428       .  A
C2022      C2025   1.441       .  S
C2025      N2027   1.157       .  T
C2026      N2028   1.157       .  T
C2029      C2030   1.418       .  A
C2029      C2034   1.423       .  A
C2030      H2035   1.084       .  S
C2030      C2031   1.427       .  A
C2031      C2032   1.423       .  A
C2031      C2038   1.440       .  S
C2032      C2033   1.411       .  A
C2033      H2036   1.083       .  S
C2033      C2034   1.416       .  A
C2034      C2037   1.445       .  S
C2037      N2039   1.157       .  T
C2038      N2040   1.157       .  T
C2041      C2042   1.422       .  A
C2041      C2046   1.413       .  A
C2042      H2047   1.083       .  S
C2042      C2043   1.403       .  A
C2043      C2044   1.416       .  A
C2043      C2050   1.444       .  S
C2044      C2045   1.432       .  A
C2045      H2048   1.082       .  S
C2045      C2046   1.436       .  A
C2046      C2049   1.440       .  S
C2049      N2051   1.157       .  T
C2050      N2052   1.158       .  T
C2053      C2054   1.396       .  A
C2053      C2058   1.396       .  A
C2054      H2059   1.084       .  S
C2054      C2055   1.395       .  A
C2055      C2056   1.421       .  A
C2055      C2062   1.445       .  S
C2056      C2057   1.415       .  A
C2057      H2060   1.082       .  S
C2057      C2058   1.403       .  A
C2058      C2061   1.437       .  S
C2061      N2063   1.157       .  T
C2062      N2064   1.157       .  T
C2065      C2066   1.409       .  A
C2065      C2070   1.404       .  A
C2066      H2071   1.079       .  S
C2066      C2067   1.393       .  A
C2067      C2068   1.406       .  A
C2067      C2074   1.442       .  S
C2068      C2069   1.403       .  A
C2069      H2072   1.077       .  S
C2069      C2070   1.388       .  A
C2070      C2073   1.437       .  S
C2073      N2075   1.155       .  T
C2074      N2076   1.157   1_545  T
C2077      C2078   1.389       .  A
C2077      C2082   1.415       .  A
C2078      H2083   1.085   1_545  S
C2078      C2079   1.387       .  A
C2079      C2080   1.415       .  A
C2079      C2086   1.446       .  S
C2080      C2081   1.391       .  A
C2081      H2084   1.085       .  S
C2081      C2082   1.389       .  A
C2082      C2085   1.445       .  S
C2085      N2087   1.157       .  T
C2086      N2088   1.157       .  T
C2089      C2090   1.406   1_554  A
C2089      C2094   1.422       .  A
C2090      H2095   1.082       .  S
C2090      C2091   1.406       .  A
C2091      C2092   1.420   1_556  A
C2091      C2098   1.446       .  S
C2092      C2093   1.416       .  A
C2093      H2096   1.084       .  S
C2093      C2094   1.431       .  A
C2094      C2097   1.440       .  S
C2097      N2099   1.157       .  T
C2098      N2100   1.157       .  T
C2101      C2102   1.404   1_554  A
C2101      C2106   1.432       .  A
C2102      H2107   1.084       .  S
C2102      C2103   1.425       .  A
C2103      C2104   1.433   1_556  A
C2103      C2110   1.439       .  S
C2104      C2105   1.396       .  A
C2105      H2108   1.085       .  S
C2105      C2106   1.406       .  A
C2106      C2109   1.447       .  S
C2109      N2111   1.157       .  T
C2110      N2112   1.157       .  T
C2113      C2114   1.409       .  A
C2113      C2118   1.419       .  A
C2114      H2119   1.085       .  S
C2114      C2115   1.422       .  A
C2115      C2116   1.424       .  A
C2115      C2122   1.440       .  S
C2116      C2117   1.409       .  A
C2117      H2120   1.085       .  S
C2117      C2118   1.409       .  A
C2118      C2121   1.445       .  S
C2121      N2123   1.157       .  T
C2122      N2124   1.157       .  T
C2125      C2126   1.406       .  A
C2125      C2130   1.417       .  A
C2126      H2131   1.086       .  S
C2126      C2127   1.406       .  A
C2127      C2128   1.422       .  A
C2127      C2134   1.442       .  S
C2128      C2129   1.416       .  A
C2129      H2132   1.084       .  S
C2129      C2130   1.427       .  A
C2130      C2133   1.442       .  S
C2133      N2135   1.157       .  T
C2134      N2136   1.157       .  T
C2137      C2138   1.402       .  A
C2137      C2142   1.397       .  A
C2138      H2143   1.085       .  S
C2138      C2139   1.395       .  A
C2139      C2140   1.409       .  A
C2139      C2146   1.444       .  S
C2140      C2141   1.407       .  A
C2141      H2144   1.085       .  S
C2141      C2142   1.377       .  A
C2142      C2145   1.448       .  S
C2145      N2147   1.157       .  T
C2146      N2148   1.157       .  T
C2149      C2150   1.418       .  A
C2149      C2154   1.398       .  A
C2150      H2155   1.084       .  S
C2150      C2151   1.391       .  A
C2151      C2152   1.385       .  A
C2151      C2158   1.436       .  S
C2152      C2153   1.407       .  A
C2153      H2156   1.076       .  S
C2153      C2154   1.399       .  A
C2154      C2157   1.439       .  S
C2157      N2159   1.155       .  T
C2158      N2160   1.157       .  T
C2161      C2162   1.414       .  A
C2161      C2166   1.403   1_554  A
C2162      H2167   1.084       .  S
C2162      C2163   1.407       .  A
C2163      C2164   1.410       .  A
C2163      C2170   1.442       .  S
C2164      C2165   1.411   1_554  A
C2165      H2168   1.086       .  S
C2165      C2166   1.382       .  A
C2166      C2169   1.447       .  S
C2169      N2171   1.157       .  T
C2170      N2172   1.157       .  T
C2173      C2174   1.408       .  A
C2173      C2178   1.408   1_554  A
C2174      H2179   1.087       .  S
C2174      C2175   1.389       .  A
C2175      C2176   1.393   1_554  A
C2175      C2182   1.444       .  S
C2176      C2177   1.404       .  A
C2177      H2180   1.085       .  S
C2177      C2178   1.398       .  A
C2178      C2181   1.441       .  S
C2181      N2183   1.157       .  T
C2182      N2184   1.157       .  T
C2185      C2186   1.415       .  A
C2185      C2190   1.434   1_554  A
C2186      H2191   1.083       .  S
C2186      C2187   1.439       .  A
C2187      C2188   1.431       .  A
C2187      C2194   1.439       .  S
C2188      C2189   1.394   1_554  A
C2189      H2192   1.084       .  S
C2189      C2190   1.405       .  A
C2190      C2193   1.450       .  S
C2193      N2195   1.157       .  T
C2194      N2196   1.157       .  T
C2197      C2198   1.407       .  A
C2197      C2202   1.427   1_556  A
C2198      H2203   1.084       .  S
C2198      C2199   1.425       .  A
C2199      C2200   1.432   1_556  A
C2199      C2206   1.441       .  S
C2200      C2201   1.405       .  A
C2201      H2204   1.084       .  S
C2201      C2202   1.418       .  A
C2202      C2205   1.445       .  S
C2205      N2207   1.157       .  T
C2206      N2208   1.158       .  T
C2209      C2210   1.401   1_455  A
C2209      C2214   1.421       .  A
C2210      H2215   1.084       .  S
C2210      C2211   1.404       .  A
C2211      C2212   1.419   1_655  A
C2211      C2218   1.445       .  S
C2212      C2213   1.406       .  A
C2213      H2216   1.084       .  S
C2213      C2214   1.418       .  A
C2214      C2217   1.441       .  S
C2217      N2219   1.157       .  T
C2218      N2220   1.157       .  T
C2221      C2222   1.420   1_455  A
C2221      C2226   1.413       .  A
C2222      H2227   1.083       .  S
C2222      C2223   1.431       .  A
C2223      C2224   1.419   1_655  A
C2223      C2230   1.441       .  S
C2224      C2225   1.414       .  A
C2225      H2228   1.085       .  S
C2225      C2226   1.408       .  A
C2226      C2229   1.442       .  S
C2229      N2231   1.157       .  T
C2230      N2232   1.157       .  T
C2233      C2234   1.405       .  A
C2233      C2238   1.419   1_554  A
C2234      H2239   1.084       .  S
C2234      C2235   1.413       .  A
C2235      C2236   1.421       .  A
C2235      C2242   1.443       .  S
C2236      C2237   1.409   1_554  A
C2237      H2240   1.084       .  S
C2237      C2238   1.416       .  A
C2238      C2241   1.442       .  S
C2241      N2243   1.157       .  T
C2242      N2244   1.157       .  T
C2245      C2246   1.406       .  A
C2245      C2250   1.434       .  A
C2246      H2251   1.084       .  S
C2246      C2247   1.425       .  A
C2247      C2248   1.432       .  A
C2247      C2254   1.441       .  S
C2248      C2249   1.396       .  A
C2249      H2252   1.079       .  S
C2249      C2250   1.406       .  A
C2250      C2253   1.441       .  S
C2253      N2255   1.157       .  T
C2254      N2256   1.158       .  T
C2257      C2258   1.418       .  A
C2257      C2262   1.419       .  A
C2258      H2263   1.072   1_556  S
C2258      C2259   1.392       .  A
C2259      C2260   1.404       .  A
C2259      C2266   1.446   1_556  S
C2260      C2261   1.429       .  A
C2261      H2264   1.083       .  S
C2261      C2262   1.444       .  A
C2262      C2265   1.439       .  S
C2265      N2267   1.157       .  T
C2266      N2268   1.157       .  T
C2269      C2270   1.417       .  A
C2269      C2274   1.415   1_455  A
C2270      H2275   1.085       .  S
C2270      C2271   1.401       .  A
C2271      C2272   1.409       .  A
C2271      C2278   1.445       .  S
C2272      C2273   1.423   1_455  A
C2273      H2276   1.080       .  S
C2273      C2274   1.433       .  A
C2274      C2277   1.437       .  S
C2277      N2279   1.156       .  T
C2278      N2280   1.157       .  T
C2281      C2282   1.399       .  A
C2281      C2286   1.428       .  A
C2282      H2287   1.082       .  S
C2282      C2283   1.412       .  A
C2283      C2284   1.429       .  A
C2283      C2290   1.446       .  S
C2284      C2285   1.415       .  A
C2285      H2288   1.083       .  S
C2285      C2286   1.438       .  A
C2286      C2289   1.439       .  S
C2289      N2291   1.157       .  T
C2290      N2292   1.157       .  T
C2293      C2294   1.419       .  A
C2293      C2298   1.413       .  A
C2294      H2299   1.083       .  S
C2294      C2295   1.431       .  A
C2295      C2296   1.417       .  A
C2295      C2302   1.440       .  S
C2296      C2297   1.411       .  A
C2297      H2300   1.086       .  S
C2297      C2298   1.405       .  A
C2298      C2301   1.441       .  S
C2301      N2303   1.157       .  T
C2302      N2304   1.157       .  T
C2305      C2306   1.400   1_455  A
C2305      C2310   1.426       .  A
C2306      H2311   1.085       .  S
C2306      C2307   1.407       .  A
C2307      C2308   1.427   1_655  A
C2307      C2314   1.446       .  S
C2308      C2309   1.409       .  A
C2309      H2312   1.084       .  S
C2309      C2310   1.428       .  A
C2310      C2313   1.439       .  S
C2313      N2315   1.157       .  T
C2314      N2316   1.157       .  T
C2317      C2318   1.405       .  A
C2317      C2322   1.425   1_455  A
C2318      H2323   1.083       .  S
C2318      C2319   1.408       .  A
C2319      C2320   1.419       .  A
C2319      C2326   1.445       .  S
C2320      C2321   1.411   1_455  A
C2321      H2324   1.084       .  S
C2321      C2322   1.428       .  A
C2322      C2325   1.440       .  S
C2325      N2327   1.157       .  T
C2326      N2328   1.157       .  T
C2329      C2330   1.400       .  A
C2329      C2334   1.392       .  A
C2330      H2335   1.074       .  S
C2330      C2331   1.395   1_655  A
C2331      C2332   1.401   1_455  A
C2331      C2338   1.444       .  S
C2332      C2333   1.416       .  A
C2333      H2336   1.081       .  S
C2333      C2334   1.402       .  A
C2334      C2337   1.435       .  S
C2337      N2339   1.155       .  T
C2338      N2340   1.157       .  T
C2341      C2342   1.385   1_455  A
C2341      C2346   1.406       .  A
C2342      H2347   1.085       .  S
C2342      C2343   1.383       .  A
C2343      C2344   1.427   1_655  A
C2343      C2350   1.449       .  S
C2344      C2345   1.402       .  A
C2345      H2348   1.084       .  S
C2345      C2346   1.401       .  A
C2346      C2349   1.441       .  S
C2349      N2351   1.157       .  T
C2350      N2352   1.157       .  T
C2353      C2354   1.417       .  A
C2353      C2358   1.421       .  A
C2354      H2359   1.084       .  S
C2354      C2355   1.437       .  A
C2355      C2356   1.425       .  A
C2355      C2362   1.440       .  S
C2356      C2357   1.404       .  A
C2357      H2360   1.077       .  S
C2357      C2358   1.406       .  A
C2358      C2361   1.446       .  S
C2361      N2363   1.157       .  T
C2362      N2364   1.157       .  T
C2365      C2366   1.411       .  A
C2365      C2370   1.423       .  A
C2366      H2371   1.086       .  S
C2366      C2367   1.413       .  A
C2367      C2368   1.421       .  A
C2367      C2374   1.442       .  S
C2368      C2369   1.412       .  A
C2369      H2372   1.083       .  S
C2369      C2370   1.426       .  A
C2370      C2373   1.441       .  S
C2373      N2375   1.157       .  T
C2374      N2376   1.157       .  T
C2377      C2378   1.417   1_554  A
C2377      C2382   1.418       .  A
C2378      H2383   1.082       .  S
C2378      C2379   1.402       .  A
C2379      C2380   1.409   1_556  A
C2379      C2386   1.439       .  S
C2380      C2381   1.431       .  A
C2381      H2384   1.084       .  S
C2381      C2382   1.440       .  A
C2382      C2385   1.439       .  S
C2385      N2387   1.157       .  T
C2386      N2388   1.157       .  T
C2389      C2390   1.409       .  A
C2389      C2394   1.421       .  A
C2390      H2395   1.068   1_556  S
C2390      C2391   1.408       .  A
C2391      C2392   1.412       .  A
C2391      C2398   1.445   1_556  S
C2392      C2393   1.417       .  A
C2393      H2396   1.083       .  S
C2393      C2394   1.435       .  A
C2394      C2397   1.440       .  S
C2397      N2399   1.157       .  T
C2398      N2400   1.157       .  T
C2401      C2402   1.396       .  A
C2401      C2406   1.392       .  A
C2402      H2407   1.081       .  S
C2402      C2403   1.391       .  A
C2403      C2404   1.421       .  A
C2403      C2410   1.444       .  S
C2404      C2405   1.411       .  A
C2405      H2408   1.083       .  S
C2405      C2406   1.398       .  A
C2406      C2409   1.436       .  S
C2409      N2411   1.156       .  T
C2410      N2412   1.157       .  T
C2413      C2414   1.412   1_556  A
C2413      C2418   1.409       .  A
C2414      H2419   1.086       .  S
C2414      C2415   1.385       .  A
C2415      C2416   1.398   1_554  A
C2415      C2422   1.444       .  S
C2416      C2417   1.404       .  A
C2417      H2420   1.084       .  S
C2417      C2418   1.400       .  A
C2418      C2421   1.436       .  S
C2421      N2423   1.155       .  T
C2422      N2424   1.157       .  T
C2425      C2426   1.397   1_556  A
C2425      C2430   1.408       .  A
C2426      H2431   1.087       .  S
C2426      C2427   1.385       .  A
C2427      C2428   1.413   1_554  A
C2427      C2434   1.447       .  S
C2428      C2429   1.399       .  A
C2429      H2432   1.086       .  S
C2429      C2430   1.389       .  A
C2430      C2433   1.443       .  S
C2433      N2435   1.157       .  T
C2434      N2436   1.158       .  T
C2437      C2438   1.417       .  A
C2437      C2442   1.421       .  A
C2438      H2443   1.086       .  S
C2438      C2439   1.408       .  A
C2439      C2440   1.416       .  A
C2439      C2446   1.443       .  S
C2440      C2441   1.427       .  A
C2441      H2444   1.083       .  S
C2441      C2442   1.442       .  A
C2442      C2445   1.439       .  S
C2445      N2447   1.157       .  T
C2446      N2448   1.158       .  T
C2449      C2450   1.404       .  A
C2449      C2454   1.429   1_655  A
C2450      H2455   1.085       .  S
C2450      C2451   1.412       .  A
C2451      C2452   1.424       .  A
C2451      C2458   1.445       .  S
C2452      C2453   1.407   1_655  A
C2453      H2456   1.084       .  S
C2453      C2454   1.425       .  A
C2454      C2457   1.437       .  S
C2457      N2459   1.156       .  T
C2458      N2460   1.157       .  T
C2461      C2462   1.410   1_455  A
C2461      C2466   1.427       .  A
C2462      H2467   1.084       .  S
C2462      C2463   1.424       .  A
C2463      C2464   1.421   1_655  A
C2463      C2470   1.441       .  S
C2464      C2465   1.393       .  A
C2465      H2468   1.081       .  S
C2465      C2466   1.398       .  A
C2466      C2469   1.447       .  S
C2469      N2471   1.157       .  T
C2470      N2472   1.157       .  T
C2473      C2474   1.414       .  A
C2473      C2478   1.417       .  A
C2474      H2479   1.084       .  S
C2474      C2475   1.426       .  A
C2475      C2476   1.417       .  A
C2475      C2482   1.442       .  S
C2476      C2477   1.411       .  A
C2477      H2480   1.085       .  S
C2477      C2478   1.411       .  A
C2478      C2481   1.443       .  S
C2481      N2483   1.158       .  T
C2482      N2484   1.157       .  T
C2485      C2486   1.408       .  A
C2485      C2490   1.418       .  A
C2486      H2491   1.083       .  S
C2486      C2487   1.399       .  A
C2487      C2488   1.401       .  A
C2487      C2494   1.439       .  S
C2488      C2489   1.387       .  A
C2489      H2492   1.063       .  S
C2489      C2490   1.391       .  A
C2490      C2493   1.444       .  S
C2493      N2495   1.157       .  T
C2494      N2496   1.156       .  T
C2497      C2498   1.398       .  A
C2497      C2502   1.400       .  A
C2498      H2503   1.086       .  S
C2498      C2499   1.379       .  A
C2499      C2500   1.411       .  A
C2499      C2506   1.448   1_455  S
C2500      C2501   1.403       .  A
C2501      H2504   1.079       .  S
C2501      C2502   1.388       .  A
C2502      C2505   1.443       .  S
C2505      N2507   1.157       .  T
C2506      N2508   1.157       .  T
C2509      C2510   1.400       .  A
C2509      C2514   1.416   1_655  A
C2510      H2515   1.082       .  S
C2510      C2511   1.377   1_655  A
C2511      C2512   1.410       .  A
C2511      C2518   1.448       .  S
C2512      C2513   1.402       .  A
C2513      H2516   1.084       .  S
C2513      C2514   1.397       .  A
C2514      C2517   1.442   1_455  S
C2517      N2519   1.157       .  T
C2518      N2520   1.157       .  T
C2521      C2522   1.414   1_556  A
C2521      C2526   1.427       .  A
C2522      H2527   1.084       .  S
C2522      C2523   1.431       .  A
C2523      C2524   1.424       .  A
C2523      C2530   1.441       .  S
C2524      C2525   1.401   1_554  A
C2525      H2528   1.085       .  S
C2525      C2526   1.411       .  A
C2526      C2529   1.444       .  S
C2529      N2531   1.157       .  T
C2530      N2532   1.157       .  T
C2533      C2534   1.410       .  A
C2533      C2538   1.416   1_554  A
C2534      H2539   1.086       .  S
C2534      C2535   1.404       .  A
C2535      C2536   1.413       .  A
C2535      C2542   1.443       .  S
C2536      C2537   1.416   1_554  A
C2537      H2540   1.083       .  S
C2537      C2538   1.426       .  A
C2538      C2541   1.441       .  S
C2541      N2543   1.157       .  T
C2542      N2544   1.157       .  T
C2545      C2546   1.418       .  A
C2545      C2550   1.426       .  A
C2546      H2551   1.084       .  S
C2546      C2547   1.439       .  A
C2547      C2548   1.429       .  A
C2547      C2554   1.440       .  S
C2548      C2549   1.409       .  A
C2549      H2552   1.083       .  S
C2549      C2550   1.414       .  A
C2550      C2553   1.446       .  S
C2553      N2555   1.157       .  T
C2554      N2556   1.157       .  T
C2557      C2558   1.415       .  A
C2557      C2562   1.425       .  A
C2558      H2563   1.084       .  S
C2558      C2559   1.431       .  A
C2559      C2560   1.422       .  A
C2559      C2566   1.441       .  S
C2560      C2561   1.405       .  A
C2561      H2564   1.081       .  S
C2561      C2562   1.411       .  A
C2562      C2565   1.446       .  S
C2565      N2567   1.157       .  T
C2566      N2568   1.157       .  T
C2569      C2570   1.407       .  A
C2569      C2574   1.422       .  A
C2570      H2575   1.081       .  S
C2570      C2571   1.396       .  A
C2571      C2572   1.403       .  A
C2571      C2578   1.442       .  S
C2572      C2573   1.393       .  A
C2573      H2576   1.085       .  S
C2573      C2574   1.387       .  A
C2574      C2577   1.442       .  S
C2577      N2579   1.156       .  T
C2578      N2580   1.157       .  T
C2581      C2582   1.401       .  A
C2581      C2586   1.417       .  A
C2582      H2587   1.075       .  S
C2582      C2583   1.396       .  A
C2583      C2584   1.401       .  A
C2583      C2590   1.437       .  S
C2584      C2585   1.401       .  A
C2585      H2588   1.079       .  S
C2585      C2586   1.388       .  A
C2586      C2589   1.448       .  S
C2589      N2591   1.158       .  T
C2590      N2592   1.157       .  T
C2593      C2594   1.410       .  A
C2593      C2598   1.415       .  A
C2594      H2599   1.086       .  S
C2594      C2595   1.380       .  A
C2595      C2596   1.392   1_554  A
C2595      C2602   1.443       .  S
C2596      C2597   1.394       .  A
C2597      H2600   1.086       .  S
C2597      C2598   1.388   1_556  A
C2598      C2601   1.445   1_554  S
C2601      N2603   1.157       .  T
C2602      N2604   1.156       .  T
C2605      C2606   1.403       .  A
C2605      C2610   1.408       .  A
C2606      H2611   1.085   1_554  S
C2606      C2607   1.391       .  A
C2607      C2608   1.407       .  A
C2607      C2614   1.443   1_554  S
C2608      C2609   1.398       .  A
C2609      H2612   1.085       .  S
C2609      C2610   1.390       .  A
C2610      C2613   1.444       .  S
C2613      N2615   1.157       .  T
C2614      N2616   1.156       .  T
C2617      C2618   1.415       .  A
C2617      C2622   1.429       .  A
C2618      H2623   1.083       .  S
C2618      C2619   1.436       .  A
C2619      C2620   1.426       .  A
C2619      C2626   1.440       .  S
C2620      C2621   1.396       .  A
C2621      H2624   1.078       .  S
C2621      C2622   1.401       .  A
C2622      C2625   1.448       .  S
C2625      N2627   1.157       .  T
C2626      N2628   1.157       .  T
C2629      C2630   1.411       .  A
C2629      C2634   1.410       .  A
C2630      H2635   1.085       .  S
C2630      C2631   1.404       .  A
C2631      C2632   1.411       .  A
C2631      C2638   1.442       .  S
C2632      C2633   1.414       .  A
C2633      H2636   1.084       .  S
C2633      C2634   1.418       .  A
C2634      C2637   1.437       .  S
C2637      N2639   1.156       .  T
C2638      N2640   1.157       .  T
C2641      C2642   1.420       .  A
C2641      C2646   1.421       .  A
C2642      H2647   1.081       .  S
C2642      C2643   1.403       .  A
C2643      C2644   1.402       .  A
C2643      C2650   1.443       .  S
C2644      C2645   1.429       .  A
C2645      H2648   1.083       .  S
C2645      C2646   1.446       .  A
C2646      C2649   1.437       .  S
C2649      N2651   1.156       .  T
C2650      N2652   1.157       .  T
C2653      C2654   1.411       .  A
C2653      C2658   1.420       .  A
C2654      H2659   1.085       .  S
C2654      C2655   1.419       .  A
C2655      C2656   1.420       .  A
C2655      C2662   1.439       .  S
C2656      C2657   1.410       .  A
C2657      H2660   1.084       .  S
C2657      C2658   1.419       .  A
C2658      C2661   1.443       .  S
C2661      N2663   1.157       .  T
C2662      N2664   1.157       .  T
C2665      C2666   1.417       .  A
C2665      C2670   1.428       .  A
C2666      H2671   1.083       .  S
C2666      C2667   1.437       .  A
C2667      C2668   1.427       .  A
C2667      C2674   1.441       .  S
C2668      C2669   1.403       .  A
C2669      H2672   1.084       .  S
C2669      C2670   1.417       .  A
C2670      C2673   1.444       .  S
C2673      N2675   1.157       .  T
C2674      N2676   1.157       .  T
C2677      C2678   1.411       .  A
C2677      C2682   1.421       .  A
C2678      H2683   1.084       .  S
C2678      C2679   1.425       .  A
C2679      C2680   1.421       .  A
C2679      C2686   1.440       .  S
C2680      C2681   1.400       .  A
C2681      H2684   1.083       .  S
C2681      C2682   1.401       .  A
C2682      C2685   1.447       .  S
C2685      N2687   1.157       .  T
C2686      N2688   1.157       .  T
C2689      C2690   1.416       .  A
C2689      C2694   1.426       .  A
C2690      H2695   1.083       .  S
C2690      C2691   1.437       .  A
C2691      C2692   1.426       .  A
C2691      C2698   1.440       .  S
C2692      C2693   1.405       .  A
C2693      H2696   1.081       .  S
C2693      C2694   1.411       .  A
C2694      C2697   1.446       .  S
C2697      N2699   1.157       .  T
C2698      N2700   1.157       .  T
C2701      C2702   1.408       .  A
C2701      C2706   1.414       .  A
C2702      H2707   1.085       .  S
C2702      C2703   1.407       .  A
C2703      C2704   1.414       .  A
C2703      C2710   1.442       .  S
C2704      C2705   1.413       .  A
C2705      H2708   1.084       .  S
C2705      C2706   1.420       .  A
C2706      C2709   1.442       .  S
C2709      N2711   1.157       .  T
C2710      N2712   1.157       .  T
C2713      C2714   1.410       .  A
C2713      C2718   1.415       .  A
C2714      H2719   1.086       .  S
C2714      C2715   1.388       .  A
C2715      C2716   1.401       .  A
C2715      C2722   1.443       .  S
C2716      C2717   1.396       .  A
C2717      H2720   1.079       .  S
C2717      C2718   1.395       .  A
C2718      C2721   1.440       .  S
C2721      N2723   1.156       .  T
C2722      N2724   1.156       .  T
C2725      C2726   1.419       .  A
C2725      C2730   1.434       .  A
C2726      H2731   1.083       .  S
C2726      C2727   1.441       .  A
C2727      C2728   1.427       .  A
C2727      C2734   1.440       .  S
C2728      C2729   1.397       .  A
C2729      H2732   1.076       .  S
C2729      C2730   1.403       .  A
C2730      C2733   1.448       .  S
C2733      N2735   1.158       .  T
C2734      N2736   1.157       .  T
C2737      C2738   1.410       .  A
C2737      C2742   1.415       .  A
C2738      H2743   1.084       .  S
C2738      C2739   1.423       .  A
C2739      C2740   1.419       .  A
C2739      C2746   1.440       .  S
C2740      C2741   1.406       .  A
C2741      H2744   1.082       .  S
C2741      C2742   1.411       .  A
C2742      C2745   1.444       .  S
C2745      N2747   1.157       .  T
C2746      N2748   1.157       .  T
C2749      C2750   1.408       .  A
C2749      C2754   1.416       .  A
C2750      H2755   1.084       .  S
C2750      C2751   1.416       .  A
C2751      C2752   1.421       .  A
C2751      C2758   1.442       .  S
C2752      C2753   1.405       .  A
C2753      H2756   1.085       .  S
C2753      C2754   1.408       .  A
C2754      C2757   1.444       .  S
C2757      N2759   1.157       .  T
C2758      N2760   1.157       .  T
C2761      C2762   1.414       .  A
C2761      C2766   1.415       .  A
C2762      H2767   1.085       .  S
C2762      C2763   1.398       .  A
C2763      C2764   1.412       .  A
C2763      C2770   1.444       .  S
C2764      C2765   1.418       .  A
C2765      H2768   1.084       .  S
C2765      C2766   1.428       .  A
C2766      C2769   1.440       .  S
C2769      N2771   1.157       .  T
C2770      N2772   1.158       .  T
C2773      C2774   1.400       .  A
C2773      C2778   1.402       .  A
C2774      H2779   1.067       .  S
C2774      C2775   1.387       .  A
C2775      C2776   1.400       .  A
C2775      C2782   1.444       .  S
C2776      C2777   1.412       .  A
C2777      H2780   1.084       .  S
C2777      C2778   1.394       .  A
C2778      C2781   1.441       .  S
C2781      N2783   1.156       .  T
C2782      N2784   1.157       .  T
C2785      C2786   1.424       .  A
C2785      C2790   1.422       .  A
C2786      H2791   1.083       .  S
C2786      C2787   1.433       .  A
C2787      C2788   1.417       .  A
C2787      C2794   1.439       .  S
C2788      C2789   1.411       .  A
C2789      H2792   1.086       .  S
C2789      C2790   1.411       .  A
C2790      C2793   1.443       .  S
C2793      N2795   1.158       .  T
C2794      N2796   1.157       .  T
C2797      C2798   1.413       .  A
C2797      C2802   1.422       .  A
C2798      H2803   1.085       .  S
C2798      C2799   1.412       .  A
C2799      C2800   1.419       .  A
C2799      C2806   1.442       .  S
C2800      C2801   1.418       .  A
C2801      H2804   1.083       .  S
C2801      C2802   1.433       .  A
C2802      C2805   1.440       .  S
C2805      N2807   1.157       .  T
C2806      N2808   1.157       .  T
C2809      C2810   1.421       .  A
C2809      C2814   1.428       .  A
C2810      H2815   1.083       .  S
C2810      C2811   1.444       .  A
C2811      C2812   1.427       .  A
C2811      C2818   1.440       .  S
C2812      C2813   1.403       .  A
C2813      H2816   1.078       .  S
C2813      C2814   1.409       .  A
C2814      C2817   1.446       .  S
C2817      N2819   1.157       .  T
C2818      N2820   1.157       .  T
C2821      C2822   1.411       .  A
C2821      C2826   1.413       .  A
C2822      H2827   1.084       .  S
C2822      C2823   1.417       .  A
C2823      C2824   1.414       .  A
C2823      C2830   1.442       .  S
C2824      C2825   1.410       .  A
C2825      H2828   1.085       .  S
C2825      C2826   1.410       .  A
C2826      C2829   1.443       .  S
C2829      N2831   1.157       .  T
C2830      N2832   1.157       .  T
C2833      C2834   1.392       .  A
C2833      C2838   1.405       .  A
C2834      H2839   1.085       .  S
C2834      C2835   1.379       .  A
C2835      C2836   1.410       .  A
C2835      C2842   1.445       .  S
C2836      C2837   1.394       .  A
C2837      H2840   1.086       .  S
C2837      C2838   1.385       .  A
C2838      C2841   1.441       .  S
C2841      N2843   1.156       .  T
C2842      N2844   1.158       .  T
C2845      C2846   1.403       .  A
C2845      C2850   1.403       .  A
C2846      H2851   1.085       .  S
C2846      C2847   1.390       .  A
C2847      C2848   1.411       .  A
C2847      C2854   1.444       .  S
C2848      C2849   1.402       .  A
C2849      H2852   1.075       .  S
C2849      C2850   1.394       .  A
C2850      C2853   1.442       .  S
C2853      N2855   1.157       .  T
C2854      N2856   1.157       .  T
C2857      C2858   1.415       .  A
C2857      C2862   1.393       .  A
C2858      H2863   1.083       .  S
C2858      C2859   1.402       .  A
C2859      C2860   1.391       .  A
C2859      C2866   1.437       .  S
C2860      C2861   1.404       .  A
C2861      H2864   1.068       .  S
C2861      C2862   1.395       .  A
C2862      C2865   1.447       .  S
C2865      N2867   1.157       .  T
C2866      N2868   1.157       .  T
C2869      C2870   1.409       .  A
C2869      C2874   1.413       .  A
C2870      H2875   1.077       .  S
C2870      C2871   1.405       .  A
C2871      C2872   1.405       .  A
C2871      C2878   1.439       .  S
C2872      C2873   1.407       .  A
C2873      H2876   1.085       .  S
C2873      C2874   1.409       .  A
C2874      C2877   1.442       .  S
C2877      N2879   1.157       .  T
C2878      N2880   1.155       .  T
C2881      C2882   1.417       .  A
C2881      C2886   1.414       .  A
C2882      H2887   1.085       .  S
C2882      C2883   1.396       .  A
C2883      C2884   1.404       .  A
C2883      C2890   1.445       .  S
C2884      C2885   1.417       .  A
C2885      H2888   1.078       .  S
C2885      C2886   1.422       .  A
C2886      C2889   1.441       .  S
C2889      N2891   1.157       .  T
C2890      N2892   1.157       .  T
C2893      C2894   1.409       .  A
C2893      C2898   1.414       .  A
C2894      H2899   1.082       .  S
C2894      C2895   1.412       .  A
C2895      C2896   1.417       .  A
C2895      C2902   1.444       .  S
C2896      C2897   1.412       .  A
C2897      H2900   1.085       .  S
C2897      C2898   1.416       .  A
C2898      C2901   1.442       .  S
C2901      N2903   1.157       .  T
C2902      N2904   1.157       .  T
C2905      C2906   1.420       .  A
C2905      C2910   1.419       .  A
C2906      H2911   1.086       .  S
C2906      C2907   1.403       .  A
C2907      C2908   1.407       .  A
C2907      C2914   1.444       .  S
C2908      C2909   1.417       .  A
C2909      H2912   1.083       .  S
C2909      C2910   1.430       .  A
C2910      C2913   1.436       .  S
C2913      N2915   1.156       .  T
C2914      N2916   1.157       .  T
C2917      C2918   1.385       .  A
C2917      C2922   1.404       .  A
C2918      H2923   1.078       .  S
C2918      C2919   1.387       .  A
C2919      C2920   1.423       .  A
C2919      C2926   1.447       .  S
C2920      C2921   1.405       .  A
C2921      H2924   1.083       .  S
C2921      C2922   1.399       .  A
C2922      C2925   1.441       .  S
C2925      N2927   1.157       .  T
C2926      N2928   1.158       .  T
C2929      C2930   1.400       .  A
C2929      C2934   1.408       .  A
C2930      H2935   1.078       .  S
C2930      C2931   1.394       .  A
C2931      C2932   1.399       .  A
C2931      C2938   1.443       .  S
C2932      C2933   1.397       .  A
C2933      H2936   1.082       .  S
C2933      C2934   1.391       .  A
C2934      C2937   1.445       .  S
C2937      N2939   1.157       .  T
C2938      N2940   1.157       .  T
C2941      C2942   1.403       .  A
C2941      C2946   1.423       .  A
C2942      H2947   1.078       .  S
C2942      C2943   1.398       .  A
C2943      C2944   1.401       .  A
C2943      C2950   1.442       .  S
C2944      C2945   1.392       .  A
C2945      H2948   1.086       .  S
C2945      C2946   1.395       .  A
C2946      C2949   1.443       .  S
C2949      N2951   1.157       .  T
C2950      N2952   1.157       .  T
C2953      C2954   1.409       .  A
C2953      C2958   1.438       .  A
C2954      H2959   1.083       .  S
C2954      C2955   1.429       .  A
C2955      C2956   1.428       .  A
C2955      C2962   1.439       .  S
C2956      C2957   1.391       .  A
C2957      H2960   1.086       .  S
C2957      C2958   1.393       .  A
C2958      C2961   1.453       .  S
C2961      N2963   1.158       .  T
C2962      N2964   1.157       .  T
C2965      C2966   1.410       .  A
C2965      C2970   1.413       .  A
C2966      H2971   1.085       .  S
C2966      C2967   1.406       .  A
C2967      C2968   1.412       .  A
C2967      C2974   1.443       .  S
C2968      C2969   1.413       .  A
C2969      H2972   1.083       .  S
C2969      C2970   1.416       .  A
C2970      C2973   1.442       .  S
C2973      N2975   1.157       .  T
C2974      N2976   1.157       .  T
C2977      C2978   1.420       .  A
C2977      C2982   1.422       .  A
C2978      H2983   1.084       .  S
C2978      C2979   1.407       .  A
C2979      C2980   1.413       .  A
C2979      C2986   1.444       .  S
C2980      C2981   1.425       .  A
C2981      H2984   1.083       .  S
C2981      C2982   1.441       .  A
C2982      C2985   1.440       .  S
C2985      N2987   1.157       .  T
C2986      N2988   1.157       .  T
C2989      C2990   1.407       .  A
C2989      C2994   1.414       .  A
C2990      H2995   1.085       .  S
C2990      C2991   1.414       .  A
C2991      C2992   1.419       .  A
C2991      C2998   1.442       .  S
C2992      C2993   1.413       .  A
C2993      H2996   1.081       .  S
C2993      C2994   1.416       .  A
C2994      C2997   1.442       .  S
C2997      N2999   1.157       .  T
C2998      N3000   1.157       .  T
C3001      C3002   1.389       .  A
C3001      C3006   1.399       .  A
C3002      H3007   1.087       .  S
C3002      C3003   1.389       .  A
C3003      C3004   1.429       .  A
C3003      C3010   1.442       .  S
C3004      C3005   1.405       .  A
C3005      H3008   1.083       .  S
C3005      C3006   1.400       .  A
C3006      C3009   1.437       .  S
C3009      N3011   1.157       .  T
C3010      N3012   1.157       .  T
C3013      C3014   1.392       .  A
C3013      C3018   1.420       .  A
C3014      H3019   1.087       .  S
C3014      C3015   1.382       .  A
C3015      C3016   1.417       .  A
C3015      C3022   1.449       .  S
C3016      C3017   1.398       .  A
C3017      H3020   1.084       .  S
C3017      C3018   1.404       .  A
C3018      C3021   1.442       .  S
C3021      N3023   1.157       .  T
C3022      N3024   1.157       .  T
C3025      C3026   1.401       .  A
C3025      C3030   1.397       .  A
C3026      H3031   1.083       .  S
C3026      C3027   1.390       .  A
C3027      C3028   1.399       .  A
C3027      C3034   1.444       .  S
C3028      C3029   1.405       .  A
C3029      H3032   1.085       .  S
C3029      C3030   1.389       .  A
C3030      C3033   1.441       .  S
C3033      N3035   1.155       .  T
C3034      N3036   1.157       .  T
C3037      C3038   1.412       .  A
C3037      C3042   1.403       .  A
C3038      H3043   1.085       .  S
C3038      C3039   1.388       .  A
C3039      C3040   1.397       .  A
C3039      C3046   1.445       .  S
C3040      C3041   1.407       .  A
C3041      H3044   1.085       .  S
C3041      C3042   1.400       .  A
C3042      C3045   1.442       .  S
C3045      N3047   1.157       .  T
C3046      N3048   1.157       .  T
