geometry optimzed in LAMMPS
_audit_creation_date              2020-11-30 
_audit_creation_method            'lammps2cif' 
_symmetry_space_group_name_H-M    'P1' 
_symmetry_Int_Tables_number       1 
_symmetry_cell_setting            triclinic 
loop_ 
_symmetry_equiv_pos_as_xyz 
  x,y,z 
_cell_length_a                    52.78623933225928 
_cell_length_b                    52.73488708333763 
_cell_length_c                    34.40710287687339 
_cell_angle_alpha                 90.20876870567083 
_cell_angle_beta                  89.93810443738982 
_cell_angle_gamma                 120.06962606684554 
loop_ 
_atom_site_label 
_atom_site_type_symbol 
_atom_site_fract_x 
_atom_site_fract_y 
_atom_site_fract_z 
_atom_site_charge 
C1          C  0.24461281  0.37311707  0.16246488     0.03160
C2          C  0.24475090  0.39630450  0.14259681    -0.12990
C3          C  0.24707314  0.39813711  0.10197625     0.00660
C4          C  0.24943848  0.37653704  0.08097600    -0.11510
C5          C  0.24815896  0.35253731  0.10043728     0.03150
C6          C  0.24605200  0.35113125  0.14118098    -0.10930
H7          H  0.24335807  0.41315170  0.15899369     0.08750
H8          H  0.25087920  0.37770237  0.04953433     0.06280
H9          H  0.24610198  0.33320521  0.15642634     0.06130
C10         C  0.24536364  0.37405966  0.33084520     0.03160
C11         C  0.24583379  0.39688904  0.35249463    -0.12990
C12         C  0.24815875  0.39754053  0.39321111     0.00660
C13         C  0.24933216  0.37468765  0.41242927    -0.11510
C14         C  0.24677154  0.35071044  0.39120146     0.03150
C15         C  0.24494380  0.35062193  0.35050728    -0.10930
H16         H  0.24488170  0.41443650  0.33749854     0.08750
H17         H  0.25073529  0.37482470  0.44386924     0.06280
H18         H  0.24389473  0.33259071  0.33396355     0.06130
C19         C  0.09278452  0.37508953  0.33122748     0.03160
C20         C  0.11608130  0.39820245  0.35115871    -0.12990
C21         C  0.11610712  0.39968439  0.39183468     0.00660
C22         C  0.09224863  0.37819011  0.41285049    -0.11510
C23         C  0.06945428  0.35417543  0.39336572     0.03150
C24         C  0.07011651  0.35251230  0.35264053    -0.10930
H25         H  0.13402239  0.41538700  0.33486936     0.08750
H26         H  0.09219785  0.37934954  0.44432040     0.06280
H27         H  0.05273669  0.33383938  0.33750199     0.06130
C28         C  0.09461788  0.37564896  0.16288146     0.03160
C29         C  0.11642066  0.39917298  0.14175485    -0.12990
C30         C  0.11499982  0.39972273  0.10103013     0.00660
C31         C  0.09103403  0.37693772  0.08138767    -0.11510
C32         C  0.06951009  0.35296385  0.10221360     0.03150
C33         C  0.07147325  0.35247587  0.14281309    -0.10930
H34         H  0.13422038  0.41736005  0.15706912     0.08750
H35         H  0.08984805  0.37715965  0.04994124     0.06280
H36         H  0.05471135  0.33415345  0.15904809     0.06130
C37         C  0.09131841  0.22054107  0.16243641     0.03160
C38         C  0.06945758  0.22191036  0.14095472    -0.12990
C39         C  0.06902679  0.22009305  0.10020475     0.00660
C40         C  0.09130941  0.21802187  0.08075996    -0.11510
C41         C  0.11446834  0.21898914  0.10186735     0.03150
C42         C  0.11416701  0.21986115  0.14256201    -0.10930
H43         H  0.05251158  0.22393090  0.15602517     0.08750
H44         H  0.09145239  0.21721042  0.04927428     0.06280
H45         H  0.13158099  0.21957711  0.15887108     0.06130
C46         C  0.09273746  0.22125741  0.33075735     0.03160
C47         C  0.07055441  0.22301284  0.35080114    -0.12990
C48         C  0.06893140  0.22124403  0.39144537     0.00660
C49         C  0.08989485  0.21791508  0.41234008    -0.11510
C50         C  0.11295515  0.21742607  0.39266987     0.03150
C51         C  0.11389347  0.21846115  0.35192168    -0.10930
H52         H  0.05427213  0.22535826  0.33455262     0.08750
H53         H  0.08901384  0.21707860  0.44382371     0.06280
H54         H  0.13092891  0.21671951  0.33665155     0.06130
C55         C  0.36255682  0.10489812  0.33116690     0.03160
C56         C  0.38569505  0.12823094  0.35109834    -0.12990
C57         C  0.38684866  0.12869227  0.39177457     0.00660
C58         C  0.36516156  0.10504192  0.41290714    -0.11510
C59         C  0.34117091  0.08215227  0.39348175     0.03150
C60         C  0.33967580  0.08259812  0.35271665    -0.10930
H61         H  0.40315353  0.14594353  0.33484624     0.08750
H62         H  0.36615689  0.10523407  0.44438352     0.06280
H63         H  0.32085597  0.06532523  0.33769775     0.06130
C64         C  0.36409398  0.10658435  0.16254690     0.03160
C65         C  0.34038930  0.08393441  0.14253032    -0.12990
C66         C  0.34043081  0.08225431  0.10185794     0.00660
C67         C  0.36430888  0.10373800  0.08084359    -0.11510
C68         C  0.38755137  0.12729508  0.10044424     0.03150
C69         C  0.38769311  0.12816080  0.14122082    -0.10930
H70         H  0.32196697  0.06735094  0.15880955     0.08750
H71         H  0.36409666  0.10289270  0.04935109     0.06280
H72         H  0.40638987  0.14551262  0.15634273     0.06130
C73         C  0.36039777  0.25898715  0.16237947     0.03160
C74         C  0.38407877  0.25991340  0.14257598    -0.12990
C75         C  0.38553132  0.26114672  0.10188790     0.00660
C76         C  0.36341944  0.26228339  0.08071122    -0.11510
C77         C  0.33888965  0.25999717  0.10001560     0.03150
C78         C  0.33725364  0.25772471  0.14073969    -0.10930
H79         H  0.40172120  0.26014867  0.15896522     0.08750
H80         H  0.36458513  0.26342371  0.04925550     0.06280
H81         H  0.31816379  0.25548356  0.15569551     0.06130
C82         C  0.36149484  0.25852505  0.33098683     0.03160
C83         C  0.38553090  0.26149331  0.35221614    -0.12990
C84         C  0.38574265  0.26277056  0.39300374     0.00660
C85         C  0.36219521  0.26235898  0.41263551    -0.11510
C86         C  0.33780263  0.25883867  0.39170991     0.03150
C87         C  0.33757435  0.25681191  0.35105732    -0.10930
H88         H  0.40430059  0.26320821  0.33697518     0.08750
H89         H  0.36222256  0.26338468  0.44411370     0.06280
H90         H  0.31887511  0.25431331  0.33480153     0.06130
C91         C  0.20619357  0.10377034  0.33098206     0.03160
C92         C  0.20872271  0.08216515  0.35122077    -0.12990
C93         C  0.20741555  0.08110316  0.39189835     0.00660
C94         C  0.20412764  0.10223217  0.41261130    -0.11510
C95         C  0.20371349  0.12521159  0.39275149     0.03150
C96         C  0.20462287  0.12580399  0.35195905    -0.10930
H97         H  0.21129468  0.06589544  0.33513196     0.08750
H98         H  0.20347825  0.10166122  0.44411218     0.06280
H99         H  0.20363205  0.14315628  0.33648056     0.06130
C100        C  0.20807309  0.10556294  0.16284002     0.03160
C101        C  0.20853735  0.08300756  0.14163617    -0.12990
C102        C  0.20642001  0.08211263  0.10089995     0.00660
C103        C  0.20415030  0.10418190  0.08125470    -0.11510
C104        C  0.20489542  0.12739993  0.10215918     0.03150
C105        C  0.20606755  0.12755030  0.14281868    -0.10930
H106        H  0.21019604  0.06596474  0.15694428     0.08750
H107        H  0.20324690  0.10406894  0.04977104     0.06280
H108        H  0.20515761  0.14475094  0.15897730     0.06130
C109        C  0.24518066  0.32526658  0.41107897     0.42490
N110        N  0.25440747  0.29914643  0.44967824     0.01380
C111        C  0.18876305  0.14787513  0.45078384    -0.06500
H112        H  0.11645987  0.18895179  0.46889835     0.06870
C113        C  0.17003444  0.23630779  0.09477030    -0.06850
Co114      Co  0.22340017  0.23615500  0.42520702     0.74180
N115        N  0.16259623  0.20763959  0.45665999    -0.26020
Co116      Co  0.17935274  0.19253496  0.49996368     0.74070
C117        C  0.13969955  0.22033470  0.08187403     0.42590
N118        N  0.24099041  0.28567536  0.06485035     0.01000
N119        N  0.16560780  0.21094972  0.04304683     0.01100
N120        N  0.21653653  0.17719596  0.40173186    -0.46870
H121        H  0.21494369  0.28532382  0.37315906     0.06860
N122        N  0.17936879  0.22400323  0.42795372     0.01390
N123        N  0.19730429  0.17855579  0.04309814     0.01130
C124        C  0.20622535  0.15254407  0.08208881     0.42730
N125        N  0.25750937  0.30233646  0.03618016    -0.25480
C126        C  0.28189333  0.24095049  0.39862517    -0.06400
N127        N  0.26045165  0.32639880  0.44315774    -0.46590
N128        N  0.19107486  0.15128076  0.04985118    -0.46810
C129        C  0.31221737  0.25677742  0.41183686     0.42510
N130        N  0.21078749  0.19200450  0.42798619     0.01380
N131        N  0.28915554  0.26986021  0.03611101    -0.25500
N132        N  0.23606103  0.28035557  0.42384088    -0.26000
N133        N  0.27236252  0.25343489  0.06474818     0.01010
H134        H  0.33518925  0.28809696  0.02362402     0.06900
H135        H  0.23647728  0.19249154  0.11990488     0.06940
N136        N  0.19427250  0.17536660  0.45668283    -0.26040
N137        N  0.18442738  0.22929177  0.06885892    -0.25660
N138        N  0.28619381  0.26668823  0.44986421     0.01380
C139        C  0.13681599  0.21704813  0.41422770     0.42780
C140        C  0.26296577  0.32982094  0.04211507    -0.06910
N141        N  0.21565391  0.19738024  0.06889429    -0.25660
H142        H  0.17958497  0.25042270  0.11980929     0.06920
N143        N  0.16474763  0.22986226  0.40169919    -0.46880
H144        H  0.27652239  0.34854394  0.02401933     0.06910
C145        C  0.31474630  0.25965280  0.07803657     0.42610
C146        C  0.22913904  0.29486437  0.39808924    -0.06410
Co147      Co  0.27241433  0.28512858  0.49285617     0.73820
N148        N  0.23515934  0.30045332  0.09107482    -0.46600
C149        C  0.20349081  0.14926232  0.41424411     0.42880
N150        N  0.31334735  0.27239994  0.44361874    -0.46590
Co151      Co  0.22839525  0.24149321  0.06755041     0.73890
C152        C  0.22239329  0.18293057  0.09488303    -0.06910
C153        C  0.13522567  0.20235765  0.45077346    -0.06480
N154        N  0.26743796  0.24829968  0.42404974    -0.26000
N155        N  0.13842737  0.20500398  0.04970889    -0.46770
H156        H  0.17520589  0.12916580  0.46889466     0.06880
C157        C  0.31642224  0.27476660  0.04178797    -0.06890
Cl158      Cl  0.22587626  0.23883264  0.49638733    -0.49890
C159        C  0.24815791  0.32841877  0.07862685     0.42640
H160        H  0.27237656  0.22663250  0.37376279     0.06850
N161        N  0.28686007  0.24714369  0.09070984    -0.46600
C162        C  0.04539855  0.32776977  0.08209946     0.42490
N163        N  0.50959514  0.30194770  0.04371981     0.01380
C164        C  0.42442910  0.15051215  0.04206517    -0.06500
H165        H  0.03746995  0.19233710  0.02353810     0.06870
C166        C  0.03088181  0.23900325  0.39852585    -0.06850
Co167      Co  0.47747233  0.23904425  0.06788408     0.74180
N168        N  0.50988424  0.21077822  0.03612937    -0.26020
Co169      Co  0.47787375  0.19538148  0.49295512     0.74070
C170        C  0.04550056  0.22334613  0.41164721     0.42590
N171        N  0.50911050  0.28797126  0.42847224     0.01000
N172        N  0.50987215  0.21368263  0.44996789     0.01100
N173        N  0.42568770  0.17972088  0.09134572    -0.46870
H174        H  0.03542411  0.28776872  0.11958889     0.06860
N175        N  0.50946985  0.22712201  0.06497624     0.01390
N176        N  0.44573396  0.18109524  0.45004212     0.01130
C177        C  0.41034271  0.15445783  0.41167314     0.42730
N178        N  0.50951466  0.30481454  0.45722232    -0.25480
C179        C  0.42409324  0.24412879  0.09489425    -0.06400
N180        N  0.03115829  0.32910015  0.05024542    -0.46590
N181        N  0.42472610  0.15371206  0.44362945    -0.46810
C182        C  0.40966740  0.26002675  0.08204673     0.42510
N183        N  0.44594557  0.19476580  0.06494476     0.01380
N184        N  0.44538176  0.27274588  0.45714618    -0.25500
N185        N  0.50904506  0.28312429  0.06937221    -0.26000
N186        N  0.44558480  0.25615593  0.42844959     0.01010
H187        H  0.41812273  0.29167759  0.46932080     0.06900
H188        H  0.41947043  0.19398614  0.37358020     0.06940
N189        N  0.44597650  0.17816643  0.03616373    -0.26040
N190        N  0.50926897  0.23181320  0.42414189    -0.25660
N191        N  0.44526378  0.26965903  0.04360577     0.01380
C192        C  0.04543656  0.22069925  0.07825929     0.42780
C193        C  0.03191096  0.33211835  0.45152373    -0.06910
N194        N  0.44585372  0.19964191  0.42425745    -0.25660
H195        H  0.03547848  0.25311082  0.37361024     0.06920
N196        N  0.03014091  0.23325119  0.09111085    -0.46880
H197        H  0.03744279  0.35093751  0.46976941     0.06910
C198        C  0.41006708  0.26324879  0.41462923     0.42610
C199        C  0.03072471  0.29743679  0.09494436    -0.06410
Co200      Co  0.47744349  0.28793776  0.50053490     0.73820
N201        N  0.02988639  0.30241340  0.40247394    -0.46600
C202        C  0.41117754  0.15169126  0.07874235     0.42880
N203        N  0.42389888  0.27546055  0.05013791    -0.46590
Co204      Co  0.47739712  0.24390056  0.42557493     0.73890
C205        C  0.42433778  0.18477198  0.39858454    -0.06910
C206        C  0.03212992  0.20575208  0.04178064    -0.06480
N207        N  0.44567227  0.25128080  0.06924175    -0.26000
N208        N  0.03128317  0.20797040  0.44355727    -0.46770
H209        H  0.41964125  0.13181133  0.02395991     0.06880
C210        C  0.42334763  0.27811644  0.45120862    -0.06890
Cl211      Cl  0.47749183  0.24155208  0.49673880    -0.49890
C212        C  0.04526679  0.33033685  0.41513900     0.42640
H213        H  0.41938966  0.22989078  0.11969424     0.06850
N214        N  0.42505268  0.25025332  0.40217458    -0.46600
C215        C  0.24605220  0.42224835  0.08201712     0.42490
N216        N  0.25627058  0.45808097  0.04381856     0.01380
C217        C  0.19221271  0.04490045  0.04268055    -0.06500
H218        H  0.11896868  0.43178745  0.02474197     0.06870
C219        C  0.17194830  0.43733690  0.39891604    -0.06850
Co220      Co  0.22603133  0.49069959  0.06836370     0.74180
N221        N  0.16517830  0.45883947  0.03697148    -0.26020
Co222      Co  0.18224791  0.49069954  0.49372436     0.74070
C223        C  0.14165096  0.42325128  0.41190848     0.42590
N224        N  0.24268938  0.45819468  0.42875041     0.01000
N225        N  0.16804391  0.45850703  0.45067988     0.01100
N226        N  0.21993792  0.04336514  0.09180098    -0.46870
H227        H  0.21622377  0.43247278  0.11978494     0.06860
N228        N  0.18185828  0.45908297  0.06568188     0.01390
N229        N  0.20052170  0.02266592  0.45076328     0.01130
C230        C  0.20995283  0.05809077  0.41234862     0.42730
N231        N  0.25917719  0.45785437  0.45733059    -0.25480
C232        C  0.28467509  0.04405817  0.09494739    -0.06400
N233        N  0.26167104  0.43642986  0.05017475    -0.46590
N234        N  0.19462153  0.04393160  0.44431050    -0.46810
C235        C  0.31495226  0.05845448  0.08182371     0.42510
N236        N  0.21402794  0.02268448  0.06560350     0.01380
N237        N  0.29165806  0.02220348  0.45733489    -0.25500
N238        N  0.23805136  0.45876324  0.06957141    -0.26000
N239        N  0.27484966  0.02189344  0.42874893     0.01010
H240        H  0.33776277  0.05008824  0.46975285     0.06900
H241        H  0.23979374  0.04811939  0.37417416     0.06940
N242        N  0.19754286  0.02283419  0.03690209    -0.26040
N243        N  0.18664678  0.45875613  0.42479658    -0.25660
N244        N  0.28881989  0.02248355  0.04374266     0.01380
C245        C  0.13910442  0.42373029  0.07940378     0.42780
C246        C  0.26391655  0.43535232  0.45149271    -0.06910
N247        N  0.21872182  0.02211155  0.42489537    -0.25660
H248        H  0.18128311  0.43261056  0.37382672     0.06920
N249        N  0.16706951  0.43864179  0.09194120    -0.46880
H250        H  0.27719713  0.42984067  0.46959837     0.06910
C251        C  0.31723811  0.05805177  0.41535726     0.42610
C252        C  0.23054264  0.43706686  0.09505266    -0.06410
Co253      Co  0.27464548  0.49014436  0.50066008     0.73820
N254        N  0.23618994  0.43728313  0.40272100    -0.46600
C255        C  0.20707645  0.05837797  0.07911192     0.42880
N256        N  0.31603155  0.04392051  0.05003615    -0.46590
Co257      Co  0.23077041  0.49022636  0.42606165     0.73890
C258        C  0.22577657  0.04360576  0.39921951    -0.06910
C259        C  0.13769043  0.43694121  0.04286277    -0.06480
N260        N  0.27014764  0.02224716  0.06950914    -0.26000
N261        N  0.14072425  0.43747407  0.44408143    -0.46770
H262        H  0.17861972  0.04998758  0.02456913     0.06880
C263        C  0.31896478  0.04458807  0.45159112    -0.06890
Cl264      Cl  0.22842398  0.49042574  0.49721254    -0.49890
C265        C  0.24863962  0.42184496  0.41518935     0.42640
H266        H  0.27520544  0.04897568  0.11971130     0.06850
N267        N  0.28932190  0.04270195  0.40280514    -0.46600
C268        C  0.18775458  0.08007264  0.22546142    -0.09120
C269        C  0.20834156  0.10543662  0.20591295     0.07070
C270        C  0.22808562  0.13024487  0.22785401    -0.02890
C271        C  0.22680503  0.12928965  0.26843912    -0.07340
C272        C  0.20626974  0.10391164  0.28794803     0.06190
C273        C  0.18648188  0.07912498  0.26604026    -0.02370
Br274      Br  0.15611304  0.04398314  0.28962752    -0.02060
H275        H  0.17214105  0.06104666  0.20901715     0.10100
H276        H  0.24233052  0.14833942  0.28492660     0.08120
Br277      Br  0.25838652  0.16548386  0.20440996    -0.02490
C278        C  0.36612773  0.23923504  0.22543185    -0.09120
C279        C  0.35992431  0.25876017  0.20559074     0.07070
C280        C  0.35457825  0.27833710  0.22744445    -0.02890
C281        C  0.35521933  0.27779058  0.26805461    -0.07340
C282        C  0.36145246  0.25829174  0.28783480     0.06190
C283        C  0.36698212  0.23886786  0.26606328    -0.02370
Br284      Br  0.37432209  0.21034998  0.29003767    -0.02060
H285        H  0.37010478  0.22394814  0.20916682     0.10100
H286        H  0.35132700  0.29312845  0.28437418     0.08120
Br287      Br  0.34830619  0.30775972  0.20397833    -0.02490
C288        C  0.36855880  0.13042138  0.26811399    -0.09120
C289        C  0.36230034  0.10465313  0.28794059     0.07070
C290        C  0.35715605  0.07978240  0.26605380    -0.02890
C291        C  0.35797380  0.08106022  0.22545713    -0.07340
C292        C  0.36418294  0.10681361  0.20570095     0.06190
C293        C  0.36964154  0.13175771  0.22752070    -0.02370
Br294      Br  0.37718574  0.16780368  0.20381879    -0.02060
H295        H  0.37238993  0.14966380  0.28436825     0.10100
H296        H  0.35419104  0.06184963  0.20912214     0.08120
Br297      Br  0.35088079  0.04402059  0.28937315    -0.02490
C298        C  0.11668063  0.24041349  0.22556327    -0.09120
C299        C  0.09105255  0.22064294  0.20556749     0.07070
C300        C  0.06618093  0.20086112  0.22715974    -0.02890
C301        C  0.06728951  0.20153128  0.26776238    -0.07340
C302        C  0.09291521  0.22135423  0.28769046     0.06190
C303        C  0.11783501  0.24092406  0.26615927    -0.02370
Br304      Br  0.15353027  0.26979520  0.29043422    -0.02060
H305        H  0.13590452  0.25577546  0.20942804     0.10100
H306        H  0.04810977  0.18606292  0.28395258     0.08120
Br307      Br  0.03074591  0.17105132  0.20327288    -0.02490
C308        C  0.06973242  0.37152028  0.22573356    -0.09120
C309        C  0.09481172  0.37564871  0.20597316     0.07070
C310        C  0.11908903  0.37933024  0.22770065    -0.02890
C311        C  0.11781916  0.37875429  0.26833069    -0.07340
C312        C  0.09269919  0.37458484  0.28810254     0.06190
C313        C  0.06851256  0.37112230  0.26630857    -0.02370
Br314      Br  0.03397488  0.36780185  0.28993248    -0.02060
H315        H  0.05108345  0.36909808  0.20941872     0.10100
H316        H  0.13652233  0.38131277  0.28463881     0.08120
Br317      Br  0.15394288  0.38369541  0.20375686    -0.02490
C318        C  0.22325642  0.34996730  0.26754886    -0.09120
C319        C  0.24509833  0.37436662  0.28770748     0.07070
C320        C  0.26676294  0.39816800  0.26627798    -0.02890
C321        C  0.26605974  0.39727581  0.22565444    -0.07340
C322        C  0.24427039  0.37286228  0.20554249     0.06190
C323        C  0.22264750  0.34906315  0.22686484    -0.02370
Br324      Br  0.19101280  0.31559867  0.20188377    -0.02060
H325        H  0.20639891  0.33163944  0.28361037     0.10100
H326        H  0.28298656  0.41559505  0.20958613     0.08120
Br327      Br  0.29898237  0.43162199  0.29059194    -0.02490
C328        C  0.24461281  0.37311708  0.66246488     0.03160
C329        C  0.24475091  0.39630450  0.64259681    -0.12990
C330        C  0.24707314  0.39813711  0.60197625     0.00660
C331        C  0.24943849  0.37653705  0.58097600    -0.11510
C332        C  0.24815897  0.35253732  0.60043728     0.03150
C333        C  0.24605200  0.35113125  0.64118098    -0.10930
H334        H  0.24335807  0.41315170  0.65899369     0.08750
H335        H  0.25087921  0.37770237  0.54953433     0.06280
H336        H  0.24610199  0.33320522  0.65642634     0.06130
C337        C  0.24536364  0.37405966  0.83084520     0.03160
C338        C  0.24583379  0.39688904  0.85249463    -0.12990
C339        C  0.24815875  0.39754053  0.89321111     0.00660
C340        C  0.24933216  0.37468765  0.91242927    -0.11510
C341        C  0.24677154  0.35071043  0.89120146     0.03150
C342        C  0.24494380  0.35062193  0.85050728    -0.10930
H343        H  0.24488171  0.41443650  0.83749855     0.08750
H344        H  0.25073529  0.37482469  0.94386924     0.06280
H345        H  0.24389473  0.33259071  0.83396355     0.06130
C346        C  0.09278452  0.37508953  0.83122748     0.03160
C347        C  0.11608130  0.39820245  0.85115871    -0.12990
C348        C  0.11610712  0.39968439  0.89183468     0.00660
C349        C  0.09224863  0.37819011  0.91285049    -0.11510
C350        C  0.06945428  0.35417543  0.89336572     0.03150
C351        C  0.07011650  0.35251231  0.85264053    -0.10930
H352        H  0.13402239  0.41538700  0.83486936     0.08750
H353        H  0.09219785  0.37934954  0.94432040     0.06280
H354        H  0.05273669  0.33383939  0.83750199     0.06130
C355        C  0.09461787  0.37564897  0.66288146     0.03160
C356        C  0.11642066  0.39917299  0.64175485    -0.12990
C357        C  0.11499982  0.39972273  0.60103013     0.00660
C358        C  0.09103403  0.37693772  0.58138767    -0.11510
C359        C  0.06951008  0.35296386  0.60221360     0.03150
C360        C  0.07147325  0.35247588  0.64281309    -0.10930
H361        H  0.13422038  0.41736006  0.65706912     0.08750
H362        H  0.08984805  0.37715965  0.54994124     0.06280
H363        H  0.05471135  0.33415346  0.65904809     0.06130
C364        C  0.09131842  0.22054108  0.66243641     0.03160
C365        C  0.06945759  0.22191036  0.64095472    -0.12990
C366        C  0.06902680  0.22009306  0.60020475     0.00660
C367        C  0.09130942  0.21802188  0.58075996    -0.11510
C368        C  0.11446835  0.21898915  0.60186735     0.03150
C369        C  0.11416702  0.21986116  0.64256201    -0.10930
H370        H  0.05251159  0.22393090  0.65602518     0.08750
H371        H  0.09145240  0.21721043  0.54927428     0.06280
H372        H  0.13158100  0.21957712  0.65887108     0.06130
C373        C  0.09273746  0.22125741  0.83075735     0.03160
C374        C  0.07055441  0.22301284  0.85080114    -0.12990
C375        C  0.06893140  0.22124403  0.89144536     0.00660
C376        C  0.08989484  0.21791508  0.91234008    -0.11510
C377        C  0.11295515  0.21742607  0.89266987     0.03150
C378        C  0.11389347  0.21846115  0.85192167    -0.10930
H379        H  0.05427213  0.22535826  0.83455262     0.08750
H380        H  0.08901384  0.21707860  0.94382371     0.06280
H381        H  0.13092891  0.21671951  0.83665155     0.06130
C382        C  0.36255681  0.10489813  0.83116689     0.03160
C383        C  0.38569504  0.12823095  0.85109834    -0.12990
C384        C  0.38684866  0.12869227  0.89177457     0.00660
C385        C  0.36516156  0.10504192  0.91290714    -0.11510
C386        C  0.34117091  0.08215226  0.89348175     0.03150
C387        C  0.33967580  0.08259812  0.85271665    -0.10930
H388        H  0.40315351  0.14594354  0.83484623     0.08750
H389        H  0.36615689  0.10523407  0.94438351     0.06280
H390        H  0.32085597  0.06532523  0.83769774     0.06130
C391        C  0.36409397  0.10658435  0.66254690     0.03160
C392        C  0.34038930  0.08393441  0.64253032    -0.12990
C393        C  0.34043081  0.08225431  0.60185794     0.00660
C394        C  0.36430888  0.10373800  0.58084359    -0.11510
C395        C  0.38755136  0.12729508  0.60044425     0.03150
C396        C  0.38769310  0.12816081  0.64122083    -0.10930
H397        H  0.32196697  0.06735094  0.65880954     0.08750
H398        H  0.36409667  0.10289270  0.54935110     0.06280
H399        H  0.40638985  0.14551263  0.65634274     0.06130
C400        C  0.36039778  0.25898717  0.66237947     0.03160
C401        C  0.38407878  0.25991341  0.64257598    -0.12990
C402        C  0.38553132  0.26114673  0.60188790     0.00660
C403        C  0.36341945  0.26228340  0.58071122    -0.11510
C404        C  0.33888966  0.25999718  0.60001560     0.03150
C405        C  0.33725364  0.25772472  0.64073969    -0.10930
H406        H  0.40172120  0.26014869  0.65896522     0.08750
H407        H  0.36458513  0.26342371  0.54925550     0.06280
H408        H  0.31816379  0.25548358  0.65569551     0.06130
C409        C  0.36149484  0.25852506  0.83098683     0.03160
C410        C  0.38553090  0.26149332  0.85221614    -0.12990
C411        C  0.38574265  0.26277056  0.89300374     0.00660
C412        C  0.36219521  0.26235899  0.91263551    -0.11510
C413        C  0.33780263  0.25883868  0.89170991     0.03150
C414        C  0.33757435  0.25681192  0.85105732    -0.10930
H415        H  0.40430060  0.26320823  0.83697518     0.08750
H416        H  0.36222256  0.26338468  0.94411370     0.06280
H417        H  0.31887511  0.25431332  0.83480153     0.06130
C418        C  0.20619357  0.10377034  0.83098206     0.03160
C419        C  0.20872271  0.08216515  0.85122077    -0.12990
C420        C  0.20741555  0.08110316  0.89189835     0.00660
C421        C  0.20412764  0.10223217  0.91261130    -0.11510
C422        C  0.20371349  0.12521159  0.89275149     0.03150
C423        C  0.20462287  0.12580399  0.85195905    -0.10930
H424        H  0.21129468  0.06589544  0.83513196     0.08750
H425        H  0.20347825  0.10166122  0.94411218     0.06280
H426        H  0.20363206  0.14315628  0.83648056     0.06130
C427        C  0.20807309  0.10556294  0.66284002     0.03160
C428        C  0.20853735  0.08300757  0.64163616    -0.12990
C429        C  0.20642002  0.08211263  0.60089995     0.00660
C430        C  0.20415030  0.10418190  0.58125470    -0.11510
C431        C  0.20489543  0.12739994  0.60215918     0.03150
C432        C  0.20606755  0.12755030  0.64281868    -0.10930
H433        H  0.21019604  0.06596474  0.65694428     0.08750
H434        H  0.20324690  0.10406894  0.54977104     0.06280
H435        H  0.20515761  0.14475094  0.65897731     0.06130
C436        C  0.24518066  0.32526658  0.91107897     0.42490
N437        N  0.25440747  0.29914643  0.94967824     0.01380
C438        C  0.18876305  0.14787512  0.95078384    -0.06500
H439        H  0.11645987  0.18895179  0.96889835     0.06870
C440        C  0.17003444  0.23630779  0.59477030    -0.06850
Co441      Co  0.22340016  0.23615500  0.92520702     0.74180
N442        N  0.16259623  0.20763959  0.95665999    -0.26020
Co443      Co  0.17935273  0.19253495  0.99996368     0.74070
C444        C  0.13969955  0.22033471  0.58187403     0.42590
N445        N  0.24099042  0.28567537  0.56485035     0.01000
N446        N  0.16560780  0.21094973  0.54304683     0.01100
N447        N  0.21653653  0.17719596  0.90173186    -0.46870
H448        H  0.21494369  0.28532382  0.87315906     0.06860
N449        N  0.17936878  0.22400323  0.92795372     0.01390
N450        N  0.19730430  0.17855580  0.54309814     0.01130
C451        C  0.20622535  0.15254407  0.58208881     0.42730
N452        N  0.25750937  0.30233647  0.53618016    -0.25480
C453        C  0.28189333  0.24095049  0.89862517    -0.06400
N454        N  0.26045165  0.32639880  0.94315774    -0.46590
N455        N  0.19107486  0.15128077  0.54985118    -0.46810
C456        C  0.31221737  0.25677743  0.91183686     0.42510
N457        N  0.21078749  0.19200450  0.92798619     0.01380
N458        N  0.28915554  0.26986021  0.53611101    -0.25500
N459        N  0.23606103  0.28035557  0.92384088    -0.26000
N460        N  0.27236252  0.25343489  0.56474818     0.01010
H461        H  0.33518926  0.28809697  0.52362402     0.06900
H462        H  0.23647728  0.19249155  0.61990488     0.06940
N463        N  0.19427250  0.17536659  0.95668282    -0.26040
N464        N  0.18442738  0.22929178  0.56885892    -0.25660
N465        N  0.28619380  0.26668822  0.94986421     0.01380
C466        C  0.13681599  0.21704813  0.91422769     0.42780
C467        C  0.26296578  0.32982095  0.54211507    -0.06910
N468        N  0.21565391  0.19738025  0.56889429    -0.25660
H469        H  0.17958498  0.25042270  0.61980929     0.06920
N470        N  0.16474763  0.22986226  0.90169919    -0.46880
H471        H  0.27652240  0.34854395  0.52401932     0.06910
C472        C  0.31474630  0.25965281  0.57803657     0.42610
C473        C  0.22913904  0.29486437  0.89808924    -0.06410
Co474      Co  0.27241432  0.28512858  0.99285617     0.73820
N475        N  0.23515935  0.30045332  0.59107482    -0.46600
C476        C  0.20349081  0.14926232  0.91424411     0.42880
N477        N  0.31334734  0.27239994  0.94361874    -0.46590
Co478      Co  0.22839526  0.24149321  0.56755041     0.73890
C479        C  0.22239329  0.18293058  0.59488303    -0.06910
C480        C  0.13522567  0.20235765  0.95077346    -0.06480
N481        N  0.26743796  0.24829968  0.92404974    -0.26000
N482        N  0.13842738  0.20500398  0.54970889    -0.46770
H483        H  0.17520588  0.12916580  0.96889466     0.06880
C484        C  0.31642224  0.27476661  0.54178797    -0.06890
Cl485      Cl  0.22587626  0.23883263  0.99638733    -0.49890
C486        C  0.24815792  0.32841877  0.57862685     0.42640
H487        H  0.27237656  0.22663250  0.87376279     0.06850
N488        N  0.28686008  0.24714370  0.59070984    -0.46600
C489        C  0.04539854  0.32776978  0.58209947     0.42490
N490        N  0.50959514  0.30194770  0.54371981     0.01380
C491        C  0.42442910  0.15051215  0.54206517    -0.06500
H492        H  0.03746995  0.19233711  0.52353810     0.06870
C493        C  0.03088181  0.23900325  0.89852584    -0.06850
Co494      Co  0.47747233  0.23904425  0.56788409     0.74180
N495        N  0.50988424  0.21077822  0.53612937    -0.26020
Co496      Co  0.47787375  0.19538148  0.99295511     0.74070
C497        C  0.04550056  0.22334613  0.91164720     0.42590
N498        N  0.50911050  0.28797126  0.92847224     0.01000
N499        N  0.50987215  0.21368263  0.94996788     0.01100
N500        N  0.42568770  0.17972088  0.59134573    -0.46870
H501        H  0.03542411  0.28776873  0.61958889     0.06860
N502        N  0.50946985  0.22712201  0.56497624     0.01390
N503        N  0.44573396  0.18109524  0.95004212     0.01130
C504        C  0.41034270  0.15445784  0.91167314     0.42730
N505        N  0.50951466  0.30481454  0.95722232    -0.25480
C506        C  0.42409325  0.24412880  0.59489425    -0.06400
N507        N  0.03115829  0.32910015  0.55024542    -0.46590
N508        N  0.42472610  0.15371206  0.94362944    -0.46810
C509        C  0.40966741  0.26002676  0.58204674     0.42510
N510        N  0.44594557  0.19476580  0.56494477     0.01380
N511        N  0.44538176  0.27274588  0.95714618    -0.25500
N512        N  0.50904507  0.28312429  0.56937221    -0.26000
N513        N  0.44558480  0.25615593  0.92844959     0.01010
H514        H  0.41812273  0.29167759  0.96932081     0.06900
H515        H  0.41947043  0.19398615  0.87358020     0.06940
N516        N  0.44597651  0.17816643  0.53616374    -0.26040
N517        N  0.50926897  0.23181320  0.92414188    -0.25660
N518        N  0.44526378  0.26965903  0.54360577     0.01380
C519        C  0.04543657  0.22069926  0.57825929     0.42780
C520        C  0.03191096  0.33211835  0.95152373    -0.06910
N521        N  0.44585372  0.19964191  0.92425745    -0.25660
H522        H  0.03547848  0.25311082  0.87361023     0.06920
N523        N  0.03014092  0.23325120  0.59111085    -0.46880
H524        H  0.03744279  0.35093751  0.96976941     0.06910
C525        C  0.41006708  0.26324879  0.91462923     0.42610
C526        C  0.03072471  0.29743680  0.59494437    -0.06410
Co527      Co  0.47744349  0.28793776  0.00053490     0.73820
N528        N  0.02988639  0.30241340  0.90247394    -0.46600
C529        C  0.41117754  0.15169126  0.57874236     0.42880
N530        N  0.42389888  0.27546055  0.55013791    -0.46590
Co531      Co  0.47739711  0.24390056  0.92557493     0.73890
C532        C  0.42433777  0.18477198  0.89858453    -0.06910
C533        C  0.03212992  0.20575208  0.54178064    -0.06480
N534        N  0.44567227  0.25128080  0.56924175    -0.26000
N535        N  0.03128317  0.20797040  0.94355727    -0.46770
H536        H  0.41964124  0.13181133  0.52395992     0.06880
C537        C  0.42334763  0.27811644  0.95120862    -0.06890
Cl538      Cl  0.47749183  0.24155208  0.99673879    -0.49890
C539        C  0.04526679  0.33033685  0.91513900     0.42640
H540        H  0.41938967  0.22989079  0.61969425     0.06850
N541        N  0.42505269  0.25025332  0.90217458    -0.46600
C542        C  0.24605220  0.42224835  0.58201712     0.42490
N543        N  0.25627058  0.45808098  0.54381856     0.01380
C544        C  0.19221271  0.04490045  0.54268055    -0.06500
H545        H  0.11896868  0.43178745  0.52474197     0.06870
C546        C  0.17194830  0.43733690  0.89891604    -0.06850
Co547      Co  0.22603133  0.49069959  0.56836370     0.74180
N548        N  0.16517830  0.45883947  0.53697147    -0.26020
Co549      Co  0.18224792  0.49069954  0.99372437     0.74070
C550        C  0.14165096  0.42325128  0.91190848     0.42590
N551        N  0.24268938  0.45819468  0.92875041     0.01000
N552        N  0.16804391  0.45850703  0.95067988     0.01100
N553        N  0.21993792  0.04336514  0.59180098    -0.46870
H554        H  0.21622378  0.43247278  0.61978494     0.06860
N555        N  0.18185828  0.45908297  0.56568188     0.01390
N556        N  0.20052170  0.02266592  0.95076328     0.01130
C557        C  0.20995283  0.05809076  0.91234862     0.42730
N558        N  0.25917719  0.45785437  0.95733059    -0.25480
C559        C  0.28467509  0.04405817  0.59494739    -0.06400
N560        N  0.26167104  0.43642987  0.55017475    -0.46590
N561        N  0.19462153  0.04393159  0.94431050    -0.46810
C562        C  0.31495226  0.05845448  0.58182371     0.42510
N563        N  0.21402794  0.02268448  0.56560350     0.01380
N564        N  0.29165806  0.02220348  0.95733489    -0.25500
N565        N  0.23805136  0.45876324  0.56957141    -0.26000
N566        N  0.27484966  0.02189343  0.92874893     0.01010
H567        H  0.33776278  0.05008824  0.96975285     0.06900
H568        H  0.23979374  0.04811938  0.87417417     0.06940
N569        N  0.19754286  0.02283419  0.53690209    -0.26040
N570        N  0.18664678  0.45875613  0.92479658    -0.25660
N571        N  0.28881989  0.02248355  0.54374265     0.01380
C572        C  0.13910442  0.42373029  0.57940378     0.42780
C573        C  0.26391656  0.43535232  0.95149271    -0.06910
N574        N  0.21872182  0.02211154  0.92489537    -0.25660
H575        H  0.18128311  0.43261056  0.87382673     0.06920
N576        N  0.16706951  0.43864179  0.59194120    -0.46880
H577        H  0.27719713  0.42984067  0.96959838     0.06910
C578        C  0.31723811  0.05805177  0.91535726     0.42610
C579        C  0.23054264  0.43706686  0.59505266    -0.06410
Co580      Co  0.27464548  0.49014435  0.00066009     0.73820
N581        N  0.23618995  0.43728312  0.90272101    -0.46600
C582        C  0.20707645  0.05837798  0.57911191     0.42880
N583        N  0.31603155  0.04392051  0.55003615    -0.46590
Co584      Co  0.23077041  0.49022636  0.92606165     0.73890
C585        C  0.22577657  0.04360576  0.89921951    -0.06910
C586        C  0.13769043  0.43694121  0.54286277    -0.06480
N587        N  0.27014764  0.02224716  0.56950913    -0.26000
N588        N  0.14072425  0.43747407  0.94408144    -0.46770
H589        H  0.17861972  0.04998758  0.52456913     0.06880
C590        C  0.31896478  0.04458807  0.95159112    -0.06890
Cl591      Cl  0.22842398  0.49042573  0.99721255    -0.49890
C592        C  0.24863962  0.42184496  0.91518936     0.42640
H593        H  0.27520544  0.04897569  0.61971129     0.06850
N594        N  0.28932190  0.04270195  0.90280514    -0.46600
C595        C  0.18775458  0.08007264  0.72546142    -0.09120
C596        C  0.20834157  0.10543662  0.70591295     0.07070
C597        C  0.22808563  0.13024487  0.72785401    -0.02890
C598        C  0.22680503  0.12928965  0.76843912    -0.07340
C599        C  0.20626974  0.10391164  0.78794803     0.06190
C600        C  0.18648188  0.07912498  0.76604026    -0.02370
Br601      Br  0.15611305  0.04398314  0.78962752    -0.02060
H602        H  0.17214106  0.06104666  0.70901715     0.10100
H603        H  0.24233053  0.14833941  0.78492660     0.08120
Br604      Br  0.25838653  0.16548386  0.70440996    -0.02490
C605        C  0.36612774  0.23923505  0.72543185    -0.09120
C606        C  0.35992432  0.25876019  0.70559074     0.07070
C607        C  0.35457826  0.27833711  0.72744445    -0.02890
C608        C  0.35521934  0.27779060  0.76805461    -0.07340
C609        C  0.36145246  0.25829175  0.78783480     0.06190
C610        C  0.36698212  0.23886787  0.76606328    -0.02370
Br611      Br  0.37432210  0.21035000  0.79003767    -0.02060
H612        H  0.37010479  0.22394815  0.70916682     0.10100
H613        H  0.35132700  0.29312846  0.78437418     0.08120
Br614      Br  0.34830620  0.30775974  0.70397833    -0.02490
C615        C  0.36855877  0.13042138  0.76811398    -0.09120
C616        C  0.36230033  0.10465313  0.78794058     0.07070
C617        C  0.35715606  0.07978241  0.76605380    -0.02890
C618        C  0.35797381  0.08106023  0.72545713    -0.07340
C619        C  0.36418292  0.10681362  0.70570095     0.06190
C620        C  0.36964150  0.13175770  0.72752070    -0.02370
Br621      Br  0.37718566  0.16780366  0.70381878    -0.02060
H622        H  0.37238988  0.14966379  0.78436824     0.10100
H623        H  0.35419106  0.06184965  0.70912214     0.08120
Br624      Br  0.35088084  0.04402061  0.78937315    -0.02490
C625        C  0.11668063  0.24041350  0.72556327    -0.09120
C626        C  0.09105255  0.22064294  0.70556749     0.07070
C627        C  0.06618094  0.20086112  0.72715974    -0.02890
C628        C  0.06728952  0.20153128  0.76776238    -0.07340
C629        C  0.09291521  0.22135424  0.78769046     0.06190
C630        C  0.11783501  0.24092406  0.76615927    -0.02370
Br631      Br  0.15353026  0.26979521  0.79043422    -0.02060
H632        H  0.13590452  0.25577547  0.70942805     0.10100
H633        H  0.04810977  0.18606292  0.78395257     0.08120
Br634      Br  0.03074592  0.17105131  0.70327287    -0.02490
C635        C  0.06973242  0.37152029  0.72573356    -0.09120
C636        C  0.09481172  0.37564872  0.70597316     0.07070
C637        C  0.11908903  0.37933025  0.72770065    -0.02890
C638        C  0.11781916  0.37875430  0.76833069    -0.07340
C639        C  0.09269919  0.37458485  0.78810254     0.06190
C640        C  0.06851255  0.37112230  0.76630857    -0.02370
Br641      Br  0.03397488  0.36780185  0.78993248    -0.02060
H642        H  0.05108345  0.36909809  0.70941872     0.10100
H643        H  0.13652233  0.38131278  0.78463881     0.08120
Br644      Br  0.15394288  0.38369542  0.70375686    -0.02490
C645        C  0.22325643  0.34996730  0.76754886    -0.09120
C646        C  0.24509833  0.37436663  0.78770748     0.07070
C647        C  0.26676295  0.39816801  0.76627798    -0.02890
C648        C  0.26605974  0.39727581  0.72565444    -0.07340
C649        C  0.24427039  0.37286229  0.70554249     0.06190
C650        C  0.22264751  0.34906315  0.72686484    -0.02370
Br651      Br  0.19101281  0.31559868  0.70188377    -0.02060
H652        H  0.20639892  0.33163944  0.78361037     0.10100
H653        H  0.28298657  0.41559506  0.70958613     0.08120
Br654      Br  0.29898237  0.43162199  0.79059194    -0.02490
C655        C  0.24461281  0.87311707  0.16246488     0.03160
C656        C  0.24475091  0.89630450  0.14259681    -0.12990
C657        C  0.24707314  0.89813711  0.10197625     0.00660
C658        C  0.24943849  0.87653704  0.08097601    -0.11510
C659        C  0.24815896  0.85253731  0.10043728     0.03150
C660        C  0.24605200  0.85113125  0.14118098    -0.10930
H661        H  0.24335807  0.91315170  0.15899369     0.08750
H662        H  0.25087921  0.87770237  0.04953433     0.06280
H663        H  0.24610199  0.83320521  0.15642634     0.06130
C664        C  0.24536364  0.87405966  0.33084520     0.03160
C665        C  0.24583379  0.89688904  0.35249463    -0.12990
C666        C  0.24815875  0.89754053  0.39321111     0.00660
C667        C  0.24933216  0.87468765  0.41242927    -0.11510
C668        C  0.24677154  0.85071043  0.39120146     0.03150
C669        C  0.24494380  0.85062193  0.35050728    -0.10930
H670        H  0.24488170  0.91443650  0.33749854     0.08750
H671        H  0.25073529  0.87482470  0.44386924     0.06280
H672        H  0.24389473  0.83259071  0.33396355     0.06130
C673        C  0.09278452  0.87508953  0.33122748     0.03160
C674        C  0.11608130  0.89820245  0.35115871    -0.12990
C675        C  0.11610712  0.89968439  0.39183468     0.00660
C676        C  0.09224863  0.87819011  0.41285049    -0.11510
C677        C  0.06945428  0.85417543  0.39336572     0.03150
C678        C  0.07011651  0.85251231  0.35264053    -0.10930
H679        H  0.13402239  0.91538700  0.33486936     0.08750
H680        H  0.09219785  0.87934954  0.44432040     0.06280
H681        H  0.05273669  0.83383939  0.33750199     0.06130
C682        C  0.09461788  0.87564897  0.16288146     0.03160
C683        C  0.11642066  0.89917299  0.14175485    -0.12990
C684        C  0.11499982  0.89972273  0.10103013     0.00660
C685        C  0.09103403  0.87693772  0.08138767    -0.11510
C686        C  0.06951009  0.85296385  0.10221360     0.03150
C687        C  0.07147325  0.85247587  0.14281309    -0.10930
H688        H  0.13422038  0.91736006  0.15706912     0.08750
H689        H  0.08984805  0.87715965  0.04994124     0.06280
H690        H  0.05471135  0.83415345  0.15904809     0.06130
C691        C  0.09131841  0.72054107  0.16243641     0.03160
C692        C  0.06945758  0.72191036  0.14095472    -0.12990
C693        C  0.06902679  0.72009305  0.10020475     0.00660
C694        C  0.09130941  0.71802187  0.08075996    -0.11510
C695        C  0.11446834  0.71898914  0.10186735     0.03150
C696        C  0.11416701  0.71986115  0.14256201    -0.10930
H697        H  0.05251158  0.72393090  0.15602517     0.08750
H698        H  0.09145239  0.71721042  0.04927428     0.06280
H699        H  0.13158099  0.71957711  0.15887108     0.06130
C700        C  0.09273746  0.72125741  0.33075735     0.03160
C701        C  0.07055441  0.72301284  0.35080114    -0.12990
C702        C  0.06893140  0.72124403  0.39144537     0.00660
C703        C  0.08989484  0.71791508  0.41234008    -0.11510
C704        C  0.11295515  0.71742607  0.39266987     0.03150
C705        C  0.11389347  0.71846115  0.35192168    -0.10930
H706        H  0.05427213  0.72535827  0.33455262     0.08750
H707        H  0.08901384  0.71707860  0.44382371     0.06280
H708        H  0.13092891  0.71671951  0.33665155     0.06130
C709        C  0.36255682  0.60489812  0.33116690     0.03160
C710        C  0.38569505  0.62823094  0.35109834    -0.12990
C711        C  0.38684866  0.62869227  0.39177457     0.00660
C712        C  0.36516156  0.60504192  0.41290714    -0.11510
C713        C  0.34117091  0.58215227  0.39348175     0.03150
C714        C  0.33967580  0.58259812  0.35271665    -0.10930
H715        H  0.40315353  0.64594353  0.33484624     0.08750
H716        H  0.36615689  0.60523407  0.44438352     0.06280
H717        H  0.32085597  0.56532523  0.33769775     0.06130
C718        C  0.36409398  0.60658435  0.16254689     0.03160
C719        C  0.34038930  0.58393441  0.14253032    -0.12990
C720        C  0.34043081  0.58225431  0.10185794     0.00660
C721        C  0.36430888  0.60373800  0.08084359    -0.11510
C722        C  0.38755137  0.62729508  0.10044424     0.03150
C723        C  0.38769311  0.62816080  0.14122082    -0.10930
H724        H  0.32196697  0.56735094  0.15880955     0.08750
H725        H  0.36409666  0.60289270  0.04935109     0.06280
H726        H  0.40638987  0.64551262  0.15634273     0.06130
C727        C  0.36039777  0.75898715  0.16237947     0.03160
C728        C  0.38407877  0.75991340  0.14257597    -0.12990
C729        C  0.38553132  0.76114672  0.10188790     0.00660
C730        C  0.36341944  0.76228339  0.08071122    -0.11510
C731        C  0.33888965  0.75999717  0.10001560     0.03150
C732        C  0.33725364  0.75772471  0.14073969    -0.10930
H733        H  0.40172120  0.76014868  0.15896522     0.08750
H734        H  0.36458513  0.76342371  0.04925550     0.06280
H735        H  0.31816379  0.75548357  0.15569551     0.06130
C736        C  0.36149484  0.75852505  0.33098683     0.03160
C737        C  0.38553090  0.76149331  0.35221613    -0.12990
C738        C  0.38574265  0.76277056  0.39300374     0.00660
C739        C  0.36219521  0.76235898  0.41263551    -0.11510
C740        C  0.33780263  0.75883867  0.39170991     0.03150
C741        C  0.33757435  0.75681191  0.35105732    -0.10930
H742        H  0.40430059  0.76320821  0.33697518     0.08750
H743        H  0.36222256  0.76338468  0.44411370     0.06280
H744        H  0.31887511  0.75431331  0.33480153     0.06130
C745        C  0.20619356  0.60377033  0.33098206     0.03160
C746        C  0.20872270  0.58216515  0.35122077    -0.12990
C747        C  0.20741554  0.58110316  0.39189835     0.00660
C748        C  0.20412764  0.60223217  0.41261130    -0.11510
C749        C  0.20371349  0.62521159  0.39275149     0.03150
C750        C  0.20462287  0.62580399  0.35195905    -0.10930
H751        H  0.21129467  0.56589544  0.33513196     0.08750
H752        H  0.20347825  0.60166122  0.44411218     0.06280
H753        H  0.20363205  0.64315628  0.33648056     0.06130
C754        C  0.20807308  0.60556293  0.16284002     0.03160
C755        C  0.20853734  0.58300756  0.14163617    -0.12990
C756        C  0.20642001  0.58211263  0.10089995     0.00660
C757        C  0.20415029  0.60418189  0.08125470    -0.11510
C758        C  0.20489542  0.62739993  0.10215918     0.03150
C759        C  0.20606754  0.62755030  0.14281868    -0.10930
H760        H  0.21019603  0.56596474  0.15694428     0.08750
H761        H  0.20324690  0.60406894  0.04977104     0.06280
H762        H  0.20515760  0.64475094  0.15897731     0.06130
C763        C  0.24518066  0.82526658  0.41107897     0.42490
N764        N  0.25440747  0.79914643  0.44967824     0.01380
C765        C  0.18876305  0.64787513  0.45078385    -0.06500
H766        H  0.11645987  0.68895179  0.46889835     0.06870
C767        C  0.17003444  0.73630779  0.09477030    -0.06850
Co768      Co  0.22340017  0.73615500  0.42520702     0.74180
N769        N  0.16259623  0.70763959  0.45665999    -0.26020
Co770      Co  0.17935274  0.69253496  0.49996368     0.74070
C771        C  0.13969955  0.72033470  0.08187403     0.42590
N772        N  0.24099041  0.78567536  0.06485035     0.01000
N773        N  0.16560780  0.71094972  0.04304683     0.01100
N774        N  0.21653652  0.67719596  0.40173186    -0.46870
H775        H  0.21494368  0.78532382  0.37315906     0.06860
N776        N  0.17936878  0.72400323  0.42795372     0.01390
N777        N  0.19730429  0.67855579  0.04309814     0.01130
C778        C  0.20622535  0.65254406  0.08208881     0.42730
N779        N  0.25750937  0.80233646  0.03618016    -0.25480
C780        C  0.28189333  0.74095049  0.39862517    -0.06400
N781        N  0.26045165  0.82639880  0.44315774    -0.46590
N782        N  0.19107486  0.65128076  0.04985118    -0.46810
C783        C  0.31221737  0.75677742  0.41183686     0.42510
N784        N  0.21078749  0.69200450  0.42798619     0.01380
N785        N  0.28915554  0.76986021  0.03611101    -0.25500
N786        N  0.23606103  0.78035557  0.42384088    -0.26000
N787        N  0.27236252  0.75343489  0.06474818     0.01010
H788        H  0.33518925  0.78809696  0.02362402     0.06900
H789        H  0.23647728  0.69249154  0.11990488     0.06940
N790        N  0.19427250  0.67536660  0.45668283    -0.26040
N791        N  0.18442737  0.72929177  0.06885892    -0.25660
N792        N  0.28619380  0.76668822  0.44986421     0.01380
C793        C  0.13681599  0.71704813  0.41422770     0.42780
C794        C  0.26296577  0.82982094  0.04211507    -0.06910
N795        N  0.21565391  0.69738024  0.06889429    -0.25660
H796        H  0.17958497  0.75042270  0.11980929     0.06920
N797        N  0.16474763  0.72986226  0.40169919    -0.46880
H798        H  0.27652240  0.84854394  0.02401933     0.06910
C799        C  0.31474630  0.75965280  0.07803657     0.42610
C800        C  0.22913904  0.79486437  0.39808924    -0.06410
Co801      Co  0.27241433  0.78512858  0.49285617     0.73820
N802        N  0.23515934  0.80045332  0.09107482    -0.46600
C803        C  0.20349080  0.64926232  0.41424411     0.42880
N804        N  0.31334734  0.77239994  0.44361874    -0.46590
Co805      Co  0.22839525  0.74149321  0.06755041     0.73890
C806        C  0.22239328  0.68293057  0.09488303    -0.06910
C807        C  0.13522567  0.70235765  0.45077346    -0.06480
N808        N  0.26743796  0.74829968  0.42404974    -0.26000
N809        N  0.13842737  0.70500398  0.04970889    -0.46770
H810        H  0.17520588  0.62916580  0.46889466     0.06880
C811        C  0.31642224  0.77476660  0.04178797    -0.06890
Cl812      Cl  0.22587626  0.73883263  0.49638733    -0.49890
C813        C  0.24815791  0.82841876  0.07862685     0.42640
H814        H  0.27237656  0.72663250  0.37376279     0.06850
N815        N  0.28686007  0.74714369  0.09070984    -0.46600
C816        C  0.04539855  0.82776977  0.08209946     0.42490
N817        N  0.50959514  0.80194770  0.04371981     0.01380
C818        C  0.42442910  0.65051215  0.04206516    -0.06500
H819        H  0.03746995  0.69233710  0.02353810     0.06870
C820        C  0.03088181  0.73900325  0.39852585    -0.06850
Co821      Co  0.47747233  0.73904425  0.06788408     0.74180
N822        N  0.50988424  0.71077822  0.03612936    -0.26020
Co823      Co  0.47787375  0.69538148  0.49295512     0.74070
C824        C  0.04550056  0.72334613  0.41164721     0.42590
N825        N  0.50911050  0.78797126  0.42847224     0.01000
N826        N  0.50987215  0.71368263  0.44996789     0.01100
N827        N  0.42568770  0.67972088  0.09134572    -0.46870
H828        H  0.03542411  0.78776873  0.11958889     0.06860
N829        N  0.50946985  0.72712201  0.06497624     0.01390
N830        N  0.44573396  0.68109524  0.45004212     0.01130
C831        C  0.41034270  0.65445783  0.41167314     0.42730
N832        N  0.50951466  0.80481454  0.45722232    -0.25480
C833        C  0.42409324  0.74412879  0.09489425    -0.06400
N834        N  0.03115829  0.82910015  0.05024542    -0.46590
N835        N  0.42472610  0.65371206  0.44362945    -0.46810
C836        C  0.40966740  0.76002675  0.08204673     0.42510
N837        N  0.44594557  0.69476580  0.06494476     0.01380
N838        N  0.44538176  0.77274588  0.45714618    -0.25500
N839        N  0.50904506  0.78312429  0.06937221    -0.26000
N840        N  0.44558480  0.75615593  0.42844959     0.01010
H841        H  0.41812273  0.79167759  0.46932080     0.06900
H842        H  0.41947043  0.69398614  0.37358020     0.06940
N843        N  0.44597650  0.67816643  0.03616373    -0.26040
N844        N  0.50926897  0.73181320  0.42414189    -0.25660
N845        N  0.44526378  0.76965903  0.04360577     0.01380
C846        C  0.04543656  0.72069925  0.07825929     0.42780
C847        C  0.03191096  0.83211835  0.45152373    -0.06910
N848        N  0.44585372  0.69964191  0.42425745    -0.25660
H849        H  0.03547848  0.75311082  0.37361024     0.06920
N850        N  0.03014092  0.73325119  0.09111085    -0.46880
H851        H  0.03744279  0.85093751  0.46976941     0.06910
C852        C  0.41006707  0.76324879  0.41462923     0.42610
C853        C  0.03072471  0.79743679  0.09494436    -0.06410
Co854      Co  0.47744349  0.78793776  0.50053490     0.73820
N855        N  0.02988639  0.80241340  0.40247394    -0.46600
C856        C  0.41117754  0.65169126  0.07874235     0.42880
N857        N  0.42389888  0.77546055  0.05013791    -0.46590
Co858      Co  0.47739711  0.74390056  0.42557493     0.73890
C859        C  0.42433778  0.68477198  0.39858454    -0.06910
C860        C  0.03212992  0.70575208  0.04178064    -0.06480
N861        N  0.44567227  0.75128080  0.06924175    -0.26000
N862        N  0.03128317  0.70797040  0.44355727    -0.46770
H863        H  0.41964124  0.63181133  0.02395991     0.06880
C864        C  0.42334763  0.77811644  0.45120862    -0.06890
Cl865      Cl  0.47749183  0.74155208  0.49673879    -0.49890
C866        C  0.04526679  0.83033686  0.41513900     0.42640
H867        H  0.41938966  0.72989078  0.11969424     0.06850
N868        N  0.42505268  0.75025332  0.40217458    -0.46600
C869        C  0.24605220  0.92224835  0.08201712     0.42490
N870        N  0.25627058  0.95808097  0.04381856     0.01380
C871        C  0.19221270  0.54490045  0.04268055    -0.06500
H872        H  0.11896868  0.93178745  0.02474197     0.06870
C873        C  0.17194830  0.93733690  0.39891604    -0.06850
Co874      Co  0.22603133  0.99069959  0.06836370     0.74180
N875        N  0.16517830  0.95883947  0.03697148    -0.26020
Co876      Co  0.18224792  0.99069954  0.49372436     0.74070
C877        C  0.14165097  0.92325128  0.41190848     0.42590
N878        N  0.24268938  0.95819468  0.42875041     0.01000
N879        N  0.16804391  0.95850704  0.45067988     0.01100
N880        N  0.21993792  0.54336514  0.09180098    -0.46870
H881        H  0.21622377  0.93247278  0.11978494     0.06860
N882        N  0.18185828  0.95908297  0.06568188     0.01390
N883        N  0.20052170  0.52266592  0.45076328     0.01130
C884        C  0.20995283  0.55809076  0.41234862     0.42730
N885        N  0.25917719  0.95785437  0.45733059    -0.25480
C886        C  0.28467509  0.54405817  0.09494739    -0.06400
N887        N  0.26167104  0.93642986  0.05017475    -0.46590
N888        N  0.19462153  0.54393159  0.44431050    -0.46810
C889        C  0.31495226  0.55845448  0.08182371     0.42510
N890        N  0.21402794  0.52268448  0.06560350     0.01380
N891        N  0.29165805  0.52220348  0.45733489    -0.25500
N892        N  0.23805136  0.95876324  0.06957142    -0.26000
N893        N  0.27484966  0.52189344  0.42874893     0.01010
H894        H  0.33776277  0.55008824  0.46975285     0.06900
H895        H  0.23979373  0.54811939  0.37417416     0.06940
N896        N  0.19754285  0.52283419  0.03690209    -0.26040
N897        N  0.18664678  0.95875613  0.42479658    -0.25660
N898        N  0.28881989  0.52248355  0.04374265     0.01380
C899        C  0.13910442  0.92373029  0.07940378     0.42780
C900        C  0.26391655  0.93535232  0.45149271    -0.06910
N901        N  0.21872182  0.52211154  0.42489537    -0.25660
H902        H  0.18128311  0.93261057  0.37382672     0.06920
N903        N  0.16706951  0.93864179  0.09194120    -0.46880
H904        H  0.27719713  0.92984067  0.46959837     0.06910
C905        C  0.31723810  0.55805177  0.41535726     0.42610
C906        C  0.23054264  0.93706686  0.09505266    -0.06410
Co907      Co  0.27464548  0.99014436  0.50066008     0.73820
N908        N  0.23618994  0.93728313  0.40272100    -0.46600
C909        C  0.20707645  0.55837797  0.07911192     0.42880
N910        N  0.31603155  0.54392051  0.05003615    -0.46590
Co911      Co  0.23077041  0.99022636  0.42606165     0.73890
C912        C  0.22577656  0.54360576  0.39921951    -0.06910
C913        C  0.13769044  0.93694121  0.04286277    -0.06480
N914        N  0.27014764  0.52224716  0.06950914    -0.26000
N915        N  0.14072426  0.93747407  0.44408143    -0.46770
H916        H  0.17861972  0.54998758  0.02456913     0.06880
C917        C  0.31896478  0.54458807  0.45159112    -0.06890
Cl918      Cl  0.22842398  0.99042574  0.49721255    -0.49890
C919        C  0.24863962  0.92184496  0.41518935     0.42640
H920        H  0.27520544  0.54897568  0.11971130     0.06850
N921        N  0.28932190  0.54270195  0.40280514    -0.46600
C922        C  0.18775457  0.58007263  0.22546142    -0.09120
C923        C  0.20834156  0.60543661  0.20591295     0.07070
C924        C  0.22808562  0.63024486  0.22785401    -0.02890
C925        C  0.22680503  0.62928964  0.26843912    -0.07340
C926        C  0.20626973  0.60391164  0.28794803     0.06190
C927        C  0.18648187  0.57912498  0.26604026    -0.02370
Br928      Br  0.15611303  0.54398314  0.28962752    -0.02060
H929        H  0.17214104  0.56104666  0.20901715     0.10100
H930        H  0.24233052  0.64833941  0.28492660     0.08120
Br931      Br  0.25838653  0.66548385  0.20440995    -0.02490
C932        C  0.36612773  0.73923504  0.22543185    -0.09120
C933        C  0.35992431  0.75876017  0.20559074     0.07070
C934        C  0.35457825  0.77833710  0.22744445    -0.02890
C935        C  0.35521933  0.77779058  0.26805461    -0.07340
C936        C  0.36145246  0.75829174  0.28783480     0.06190
C937        C  0.36698211  0.73886786  0.26606328    -0.02370
Br938      Br  0.37432209  0.71034998  0.29003767    -0.02060
H939        H  0.37010478  0.72394814  0.20916682     0.10100
H940        H  0.35132700  0.79312845  0.28437417     0.08120
Br941      Br  0.34830619  0.80775972  0.20397833    -0.02490
C942        C  0.36855880  0.63042138  0.26811398    -0.09120
C943        C  0.36230034  0.60465313  0.28794058     0.07070
C944        C  0.35715605  0.57978240  0.26605380    -0.02890
C945        C  0.35797380  0.58106022  0.22545713    -0.07340
C946        C  0.36418294  0.60681361  0.20570095     0.06190
C947        C  0.36964154  0.63175771  0.22752070    -0.02370
Br948      Br  0.37718574  0.66780368  0.20381879    -0.02060
H949        H  0.37238993  0.64966380  0.28436824     0.10100
H950        H  0.35419104  0.56184963  0.20912214     0.08120
Br951      Br  0.35088079  0.54402058  0.28937315    -0.02490
C952        C  0.11668063  0.74041349  0.22556327    -0.09120
C953        C  0.09105255  0.72064294  0.20556749     0.07070
C954        C  0.06618093  0.70086112  0.22715974    -0.02890
C955        C  0.06728951  0.70153128  0.26776238    -0.07340
C956        C  0.09291521  0.72135423  0.28769046     0.06190
C957        C  0.11783501  0.74092406  0.26615927    -0.02370
Br958      Br  0.15353026  0.76979520  0.29043422    -0.02060
H959        H  0.13590452  0.75577546  0.20942804     0.10100
H960        H  0.04810977  0.68606292  0.28395258     0.08120
Br961      Br  0.03074591  0.67105132  0.20327288    -0.02490
C962        C  0.06973242  0.87152029  0.22573356    -0.09120
C963        C  0.09481172  0.87564871  0.20597316     0.07070
C964        C  0.11908903  0.87933024  0.22770065    -0.02890
C965        C  0.11781916  0.87875430  0.26833069    -0.07340
C966        C  0.09269919  0.87458484  0.28810254     0.06190
C967        C  0.06851256  0.87112230  0.26630857    -0.02370
Br968      Br  0.03397488  0.86780185  0.28993248    -0.02060
H969        H  0.05108345  0.86909808  0.20941872     0.10100
H970        H  0.13652233  0.88131277  0.28463881     0.08120
Br971      Br  0.15394288  0.88369541  0.20375686    -0.02490
C972        C  0.22325642  0.84996730  0.26754886    -0.09120
C973        C  0.24509833  0.87436662  0.28770748     0.07070
C974        C  0.26676294  0.89816800  0.26627798    -0.02890
C975        C  0.26605974  0.89727581  0.22565444    -0.07340
C976        C  0.24427039  0.87286228  0.20554249     0.06190
C977        C  0.22264750  0.84906315  0.22686484    -0.02370
Br978      Br  0.19101281  0.81559867  0.20188377    -0.02060
H979        H  0.20639891  0.83163944  0.28361037     0.10100
H980        H  0.28298657  0.91559505  0.20958613     0.08120
Br981      Br  0.29898237  0.93162199  0.29059194    -0.02490
C982        C  0.24461281  0.87311708  0.66246488     0.03160
C983        C  0.24475091  0.89630450  0.64259681    -0.12990
C984        C  0.24707314  0.89813711  0.60197625     0.00660
C985        C  0.24943849  0.87653705  0.58097600    -0.11510
C986        C  0.24815897  0.85253732  0.60043728     0.03150
C987        C  0.24605200  0.85113125  0.64118098    -0.10930
H988        H  0.24335807  0.91315170  0.65899369     0.08750
H989        H  0.25087921  0.87770237  0.54953433     0.06280
H990        H  0.24610199  0.83320522  0.65642634     0.06130
C991        C  0.24536365  0.87405966  0.83084520     0.03160
C992        C  0.24583380  0.89688904  0.85249463    -0.12990
C993        C  0.24815876  0.89754053  0.89321111     0.00660
C994        C  0.24933216  0.87468765  0.91242927    -0.11510
C995        C  0.24677154  0.85071043  0.89120146     0.03150
C996        C  0.24494380  0.85062193  0.85050728    -0.10930
H997        H  0.24488171  0.91443650  0.83749855     0.08750
H998        H  0.25073529  0.87482469  0.94386924     0.06280
H999        H  0.24389474  0.83259071  0.83396355     0.06130
C1000       C  0.09278452  0.87508953  0.83122748     0.03160
C1001       C  0.11608130  0.89820245  0.85115871    -0.12990
C1002       C  0.11610712  0.89968439  0.89183468     0.00660
C1003       C  0.09224863  0.87819011  0.91285049    -0.11510
C1004       C  0.06945428  0.85417543  0.89336572     0.03150
C1005       C  0.07011651  0.85251231  0.85264053    -0.10930
H1006       H  0.13402239  0.91538700  0.83486936     0.08750
H1007       H  0.09219785  0.87934954  0.94432040     0.06280
H1008       H  0.05273669  0.83383939  0.83750199     0.06130
C1009       C  0.09461787  0.87564897  0.66288146     0.03160
C1010       C  0.11642066  0.89917299  0.64175485    -0.12990
C1011       C  0.11499982  0.89972273  0.60103013     0.00660
C1012       C  0.09103403  0.87693772  0.58138767    -0.11510
C1013       C  0.06951008  0.85296386  0.60221360     0.03150
C1014       C  0.07147325  0.85247588  0.64281309    -0.10930
H1015       H  0.13422038  0.91736006  0.65706912     0.08750
H1016       H  0.08984805  0.87715965  0.54994124     0.06280
H1017       H  0.05471135  0.83415346  0.65904809     0.06130
C1018       C  0.09131841  0.72054108  0.66243641     0.03160
C1019       C  0.06945759  0.72191037  0.64095472    -0.12990
C1020       C  0.06902680  0.72009306  0.60020475     0.00660
C1021       C  0.09130941  0.71802188  0.58075996    -0.11510
C1022       C  0.11446835  0.71898915  0.60186735     0.03150
C1023       C  0.11416702  0.71986115  0.64256201    -0.10930
H1024       H  0.05251159  0.72393090  0.65602518     0.08750
H1025       H  0.09145240  0.71721043  0.54927428     0.06280
H1026       H  0.13158100  0.71957712  0.65887108     0.06130
C1027       C  0.09273746  0.72125741  0.83075735     0.03160
C1028       C  0.07055441  0.72301284  0.85080114    -0.12990
C1029       C  0.06893140  0.72124403  0.89144536     0.00660
C1030       C  0.08989484  0.71791508  0.91234008    -0.11510
C1031       C  0.11295515  0.71742607  0.89266987     0.03150
C1032       C  0.11389347  0.71846115  0.85192168    -0.10930
H1033       H  0.05427213  0.72535827  0.83455262     0.08750
H1034       H  0.08901384  0.71707860  0.94382371     0.06280
H1035       H  0.13092891  0.71671951  0.83665155     0.06130
C1036       C  0.36255681  0.60489812  0.83116689     0.03160
C1037       C  0.38569504  0.62823095  0.85109834    -0.12990
C1038       C  0.38684866  0.62869227  0.89177457     0.00660
C1039       C  0.36516155  0.60504192  0.91290714    -0.11510
C1040       C  0.34117091  0.58215226  0.89348175     0.03150
C1041       C  0.33967580  0.58259812  0.85271665    -0.10930
H1042       H  0.40315351  0.64594354  0.83484623     0.08750
H1043       H  0.36615689  0.60523407  0.94438351     0.06280
H1044       H  0.32085597  0.56532523  0.83769774     0.06130
C1045       C  0.36409397  0.60658435  0.66254690     0.03160
C1046       C  0.34038930  0.58393441  0.64253032    -0.12990
C1047       C  0.34043081  0.58225431  0.60185794     0.00660
C1048       C  0.36430887  0.60373800  0.58084359    -0.11510
C1049       C  0.38755136  0.62729508  0.60044425     0.03150
C1050       C  0.38769310  0.62816081  0.64122082    -0.10930
H1051       H  0.32196697  0.56735094  0.65880954     0.08750
H1052       H  0.36409666  0.60289271  0.54935109     0.06280
H1053       H  0.40638985  0.64551263  0.65634274     0.06130
C1054       C  0.36039778  0.75898717  0.66237947     0.03160
C1055       C  0.38407878  0.75991341  0.64257598    -0.12990
C1056       C  0.38553132  0.76114673  0.60188790     0.00660
C1057       C  0.36341945  0.76228340  0.58071122    -0.11510
C1058       C  0.33888966  0.75999718  0.60001560     0.03150
C1059       C  0.33725364  0.75772472  0.64073969    -0.10930
H1060       H  0.40172120  0.76014869  0.65896522     0.08750
H1061       H  0.36458513  0.76342371  0.54925550     0.06280
H1062       H  0.31816379  0.75548358  0.65569551     0.06130
C1063       C  0.36149484  0.75852506  0.83098683     0.03160
C1064       C  0.38553090  0.76149332  0.85221614    -0.12990
C1065       C  0.38574265  0.76277056  0.89300374     0.00660
C1066       C  0.36219521  0.76235899  0.91263551    -0.11510
C1067       C  0.33780263  0.75883868  0.89170991     0.03150
C1068       C  0.33757435  0.75681192  0.85105732    -0.10930
H1069       H  0.40430060  0.76320823  0.83697518     0.08750
H1070       H  0.36222256  0.76338468  0.94411370     0.06280
H1071       H  0.31887511  0.75431332  0.83480153     0.06130
C1072       C  0.20619356  0.60377033  0.83098206     0.03160
C1073       C  0.20872270  0.58216515  0.85122077    -0.12990
C1074       C  0.20741554  0.58110316  0.89189835     0.00660
C1075       C  0.20412764  0.60223217  0.91261130    -0.11510
C1076       C  0.20371349  0.62521159  0.89275149     0.03150
C1077       C  0.20462287  0.62580399  0.85195905    -0.10930
H1078       H  0.21129467  0.56589544  0.83513196     0.08750
H1079       H  0.20347825  0.60166122  0.94411218     0.06280
H1080       H  0.20363205  0.64315628  0.83648056     0.06130
C1081       C  0.20807309  0.60556294  0.66284002     0.03160
C1082       C  0.20853735  0.58300756  0.64163616    -0.12990
C1083       C  0.20642001  0.58211263  0.60089995     0.00660
C1084       C  0.20415030  0.60418190  0.58125470    -0.11510
C1085       C  0.20489543  0.62739993  0.60215918     0.03150
C1086       C  0.20606755  0.62755030  0.64281868    -0.10930
H1087       H  0.21019603  0.56596474  0.65694428     0.08750
H1088       H  0.20324690  0.60406894  0.54977104     0.06280
H1089       H  0.20515761  0.64475094  0.65897731     0.06130
C1090       C  0.24518066  0.82526658  0.91107897     0.42490
N1091       N  0.25440747  0.79914643  0.94967824     0.01380
C1092       C  0.18876305  0.64787512  0.95078384    -0.06500
H1093       H  0.11645987  0.68895179  0.96889835     0.06870
C1094       C  0.17003444  0.73630779  0.59477030    -0.06850
Co1095     Co  0.22340016  0.73615500  0.92520702     0.74180
N1096       N  0.16259623  0.70763959  0.95665999    -0.26020
Co1097     Co  0.17935273  0.69253495  0.99996368     0.74070
C1098       C  0.13969955  0.72033471  0.58187403     0.42590
N1099       N  0.24099042  0.78567537  0.56485035     0.01000
N1100       N  0.16560780  0.71094973  0.54304683     0.01100
N1101       N  0.21653652  0.67719596  0.90173186    -0.46870
H1102       H  0.21494369  0.78532382  0.87315906     0.06860
N1103       N  0.17936878  0.72400323  0.92795372     0.01390
N1104       N  0.19730429  0.67855580  0.54309814     0.01130
C1105       C  0.20622535  0.65254407  0.58208881     0.42730
N1106       N  0.25750937  0.80233647  0.53618016    -0.25480
C1107       C  0.28189333  0.74095049  0.89862517    -0.06400
N1108       N  0.26045165  0.82639880  0.94315774    -0.46590
N1109       N  0.19107486  0.65128076  0.54985118    -0.46810
C1110       C  0.31221737  0.75677742  0.91183686     0.42510
N1111       N  0.21078749  0.69200450  0.92798619     0.01380
N1112       N  0.28915554  0.76986021  0.53611101    -0.25500
N1113       N  0.23606103  0.78035557  0.92384088    -0.26000
N1114       N  0.27236252  0.75343489  0.56474818     0.01010
H1115       H  0.33518925  0.78809697  0.52362402     0.06900
H1116       H  0.23647728  0.69249155  0.61990488     0.06940
N1117       N  0.19427249  0.67536659  0.95668283    -0.26040
N1118       N  0.18442738  0.72929178  0.56885893    -0.25660
N1119       N  0.28619380  0.76668822  0.94986421     0.01380
C1120       C  0.13681599  0.71704813  0.91422770     0.42780
C1121       C  0.26296577  0.82982095  0.54211507    -0.06910
N1122       N  0.21565391  0.69738025  0.56889429    -0.25660
H1123       H  0.17958498  0.75042270  0.61980929     0.06920
N1124       N  0.16474763  0.72986226  0.90169919    -0.46880
H1125       H  0.27652240  0.84854395  0.52401932     0.06910
C1126       C  0.31474630  0.75965281  0.57803657     0.42610
C1127       C  0.22913904  0.79486437  0.89808924    -0.06410
Co1128     Co  0.27241432  0.78512857  0.99285617     0.73820
N1129       N  0.23515934  0.80045332  0.59107482    -0.46600
C1130       C  0.20349080  0.64926231  0.91424411     0.42880
N1131       N  0.31334734  0.77239994  0.94361874    -0.46590
Co1132     Co  0.22839526  0.74149321  0.56755041     0.73890
C1133       C  0.22239329  0.68293057  0.59488303    -0.06910
C1134       C  0.13522567  0.70235765  0.95077346    -0.06480
N1135       N  0.26743796  0.74829968  0.92404974    -0.26000
N1136       N  0.13842738  0.70500398  0.54970889    -0.46770
H1137       H  0.17520588  0.62916580  0.96889466     0.06880
C1138       C  0.31642224  0.77476661  0.54178797    -0.06890
Cl1139     Cl  0.22587626  0.73883263  0.99638733    -0.49890
C1140       C  0.24815792  0.82841877  0.57862685     0.42640
H1141       H  0.27237656  0.72663250  0.87376279     0.06850
N1142       N  0.28686008  0.74714370  0.59070984    -0.46600
C1143       C  0.04539854  0.82776978  0.58209947     0.42490
N1144       N  0.50959514  0.80194770  0.54371981     0.01380
C1145       C  0.42442909  0.65051215  0.54206517    -0.06500
H1146       H  0.03746995  0.69233711  0.52353810     0.06870
C1147       C  0.03088181  0.73900325  0.89852584    -0.06850
Co1148     Co  0.47747233  0.73904425  0.56788409     0.74180
N1149       N  0.50988424  0.71077822  0.53612937    -0.26020
Co1150     Co  0.47787374  0.69538148  0.99295511     0.74070
C1151       C  0.04550056  0.72334613  0.91164720     0.42590
N1152       N  0.50911050  0.78797126  0.92847224     0.01000
N1153       N  0.50987215  0.71368263  0.94996788     0.01100
N1154       N  0.42568770  0.67972088  0.59134573    -0.46870
H1155       H  0.03542411  0.78776873  0.61958889     0.06860
N1156       N  0.50946985  0.72712201  0.56497624     0.01390
N1157       N  0.44573396  0.68109524  0.95004211     0.01130
C1158       C  0.41034270  0.65445784  0.91167314     0.42730
N1159       N  0.50951466  0.80481454  0.95722232    -0.25480
C1160       C  0.42409325  0.74412880  0.59489425    -0.06400
N1161       N  0.03115829  0.82910015  0.55024542    -0.46590
N1162       N  0.42472610  0.65371206  0.94362944    -0.46810
C1163       C  0.40966741  0.76002676  0.58204674     0.42510
N1164       N  0.44594557  0.69476580  0.56494477     0.01380
N1165       N  0.44538176  0.77274588  0.95714618    -0.25500
N1166       N  0.50904506  0.78312429  0.56937221    -0.26000
N1167       N  0.44558480  0.75615593  0.92844959     0.01010
H1168       H  0.41812273  0.79167759  0.96932081     0.06900
H1169       H  0.41947043  0.69398615  0.87358020     0.06940
N1170       N  0.44597650  0.67816643  0.53616374    -0.26040
N1171       N  0.50926897  0.73181320  0.92414188    -0.25660
N1172       N  0.44526378  0.76965903  0.54360577     0.01380
C1173       C  0.04543657  0.72069926  0.57825929     0.42780
C1174       C  0.03191096  0.83211835  0.95152373    -0.06910
N1175       N  0.44585372  0.69964191  0.92425745    -0.25660
H1176       H  0.03547848  0.75311082  0.87361023     0.06920
N1177       N  0.03014092  0.73325120  0.59111086    -0.46880
H1178       H  0.03744279  0.85093751  0.96976941     0.06910
C1179       C  0.41006708  0.76324879  0.91462923     0.42610
C1180       C  0.03072471  0.79743680  0.59494437    -0.06410
Co1181     Co  0.47744349  0.78793776  0.00053490     0.73820
N1182       N  0.02988639  0.80241340  0.90247394    -0.46600
C1183       C  0.41117754  0.65169126  0.57874235     0.42880
N1184       N  0.42389888  0.77546055  0.55013791    -0.46590
Co1185     Co  0.47739711  0.74390056  0.92557493     0.73890
C1186       C  0.42433777  0.68477198  0.89858453    -0.06910
C1187       C  0.03212992  0.70575208  0.54178065    -0.06480
N1188       N  0.44567227  0.75128080  0.56924175    -0.26000
N1189       N  0.03128317  0.70797040  0.94355727    -0.46770
H1190       H  0.41964124  0.63181133  0.52395992     0.06880
C1191       C  0.42334763  0.77811644  0.95120862    -0.06890
Cl1192     Cl  0.47749183  0.74155208  0.99673879    -0.49890
C1193       C  0.04526679  0.83033686  0.91513900     0.42640
H1194       H  0.41938966  0.72989079  0.61969425     0.06850
N1195       N  0.42505268  0.75025332  0.90217458    -0.46600
C1196       C  0.24605220  0.92224835  0.58201712     0.42490
N1197       N  0.25627058  0.95808098  0.54381856     0.01380
C1198       C  0.19221270  0.54490045  0.54268055    -0.06500
H1199       H  0.11896868  0.93178746  0.52474197     0.06870
C1200       C  0.17194830  0.93733690  0.89891604    -0.06850
Co1201     Co  0.22603133  0.99069959  0.56836370     0.74180
N1202       N  0.16517830  0.95883948  0.53697147    -0.26020
Co1203     Co  0.18224792  0.99069954  0.99372437     0.74070
C1204       C  0.14165097  0.92325128  0.91190848     0.42590
N1205       N  0.24268938  0.95819468  0.92875041     0.01000
N1206       N  0.16804392  0.95850703  0.95067988     0.01100
N1207       N  0.21993792  0.54336514  0.59180098    -0.46870
H1208       H  0.21622378  0.93247278  0.61978494     0.06860
N1209       N  0.18185828  0.95908297  0.56568188     0.01390
N1210       N  0.20052170  0.52266592  0.95076328     0.01130
C1211       C  0.20995283  0.55809076  0.91234862     0.42730
N1212       N  0.25917719  0.95785437  0.95733059    -0.25480
C1213       C  0.28467509  0.54405817  0.59494738    -0.06400
N1214       N  0.26167104  0.93642987  0.55017475    -0.46590
N1215       N  0.19462153  0.54393159  0.94431050    -0.46810
C1216       C  0.31495226  0.55845448  0.58182371     0.42510
N1217       N  0.21402794  0.52268448  0.56560350     0.01380
N1218       N  0.29165806  0.52220348  0.95733489    -0.25500
N1219       N  0.23805136  0.95876324  0.56957141    -0.26000
N1220       N  0.27484966  0.52189343  0.92874893     0.01010
H1221       H  0.33776277  0.55008824  0.96975285     0.06900
H1222       H  0.23979373  0.54811938  0.87417416     0.06940
N1223       N  0.19754285  0.52283419  0.53690209    -0.26040
N1224       N  0.18664679  0.95875613  0.92479658    -0.25660
N1225       N  0.28881989  0.52248355  0.54374265     0.01380
C1226       C  0.13910442  0.92373029  0.57940378     0.42780
C1227       C  0.26391656  0.93535232  0.95149271    -0.06910
N1228       N  0.21872182  0.52211154  0.92489537    -0.25660
H1229       H  0.18128311  0.93261056  0.87382673     0.06920
N1230       N  0.16706951  0.93864179  0.59194120    -0.46880
H1231       H  0.27719713  0.92984067  0.96959838     0.06910
C1232       C  0.31723811  0.55805177  0.91535726     0.42610
C1233       C  0.23054264  0.93706686  0.59505266    -0.06410
Co1234     Co  0.27464548  0.99014435  0.00066009     0.73820
N1235       N  0.23618995  0.93728312  0.90272101    -0.46600
C1236       C  0.20707645  0.55837798  0.57911192     0.42880
N1237       N  0.31603155  0.54392051  0.55003614    -0.46590
Co1238     Co  0.23077041  0.99022636  0.92606165     0.73890
C1239       C  0.22577656  0.54360576  0.89921951    -0.06910
C1240       C  0.13769043  0.93694121  0.54286277    -0.06480
N1241       N  0.27014764  0.52224716  0.56950913    -0.26000
N1242       N  0.14072426  0.93747407  0.94408144    -0.46770
H1243       H  0.17861972  0.54998758  0.52456913     0.06880
C1244       C  0.31896478  0.54458807  0.95159112    -0.06890
Cl1245     Cl  0.22842398  0.99042574  0.99721255    -0.49890
C1246       C  0.24863962  0.92184496  0.91518936     0.42640
H1247       H  0.27520544  0.54897569  0.61971129     0.06850
N1248       N  0.28932190  0.54270195  0.90280514    -0.46600
C1249       C  0.18775457  0.58007263  0.72546142    -0.09120
C1250       C  0.20834156  0.60543661  0.70591295     0.07070
C1251       C  0.22808562  0.63024486  0.72785401    -0.02890
C1252       C  0.22680503  0.62928964  0.76843912    -0.07340
C1253       C  0.20626974  0.60391164  0.78794803     0.06190
C1254       C  0.18648187  0.57912497  0.76604026    -0.02370
Br1255     Br  0.15611303  0.54398314  0.78962752    -0.02060
H1256       H  0.17214104  0.56104666  0.70901715     0.10100
H1257       H  0.24233053  0.64833941  0.78492660     0.08120
Br1258     Br  0.25838653  0.66548386  0.70440996    -0.02490
C1259       C  0.36612774  0.73923505  0.72543185    -0.09120
C1260       C  0.35992432  0.75876019  0.70559074     0.07070
C1261       C  0.35457826  0.77833712  0.72744445    -0.02890
C1262       C  0.35521934  0.77779060  0.76805461    -0.07340
C1263       C  0.36145246  0.75829175  0.78783480     0.06190
C1264       C  0.36698212  0.73886787  0.76606328    -0.02370
Br1265     Br  0.37432210  0.71035000  0.79003767    -0.02060
H1266       H  0.37010479  0.72394815  0.70916682     0.10100
H1267       H  0.35132700  0.79312847  0.78437418     0.08120
Br1268     Br  0.34830620  0.80775974  0.70397833    -0.02490
C1269       C  0.36855877  0.63042138  0.76811398    -0.09120
C1270       C  0.36230033  0.60465313  0.78794058     0.07070
C1271       C  0.35715606  0.57978241  0.76605380    -0.02890
C1272       C  0.35797381  0.58106023  0.72545713    -0.07340
C1273       C  0.36418292  0.60681362  0.70570095     0.06190
C1274       C  0.36964150  0.63175770  0.72752070    -0.02370
Br1275     Br  0.37718567  0.66780366  0.70381878    -0.02060
H1276       H  0.37238988  0.64966379  0.78436824     0.10100
H1277       H  0.35419106  0.56184965  0.70912214     0.08120
Br1278     Br  0.35088084  0.54402061  0.78937315    -0.02490
C1279       C  0.11668063  0.74041349  0.72556327    -0.09120
C1280       C  0.09105255  0.72064294  0.70556749     0.07070
C1281       C  0.06618094  0.70086112  0.72715974    -0.02890
C1282       C  0.06728952  0.70153128  0.76776238    -0.07340
C1283       C  0.09291521  0.72135423  0.78769046     0.06190
C1284       C  0.11783501  0.74092406  0.76615927    -0.02370
Br1285     Br  0.15353026  0.76979521  0.79043422    -0.02060
H1286       H  0.13590452  0.75577547  0.70942805     0.10100
H1287       H  0.04810977  0.68606292  0.78395257     0.08120
Br1288     Br  0.03074592  0.67105131  0.70327287    -0.02490
C1289       C  0.06973242  0.87152029  0.72573356    -0.09120
C1290       C  0.09481172  0.87564872  0.70597316     0.07070
C1291       C  0.11908903  0.87933025  0.72770065    -0.02890
C1292       C  0.11781916  0.87875430  0.76833069    -0.07340
C1293       C  0.09269919  0.87458485  0.78810254     0.06190
C1294       C  0.06851256  0.87112230  0.76630857    -0.02370
Br1295     Br  0.03397488  0.86780185  0.78993248    -0.02060
H1296       H  0.05108345  0.86909809  0.70941872     0.10100
H1297       H  0.13652233  0.88131278  0.78463881     0.08120
Br1298     Br  0.15394288  0.88369542  0.70375686    -0.02490
C1299       C  0.22325643  0.84996730  0.76754886    -0.09120
C1300       C  0.24509834  0.87436663  0.78770748     0.07070
C1301       C  0.26676295  0.89816801  0.76627798    -0.02890
C1302       C  0.26605974  0.89727581  0.72565444    -0.07340
C1303       C  0.24427039  0.87286229  0.70554249     0.06190
C1304       C  0.22264751  0.84906315  0.72686484    -0.02370
Br1305     Br  0.19101282  0.81559868  0.70188377    -0.02060
H1306       H  0.20639892  0.83163944  0.78361037     0.10100
H1307       H  0.28298657  0.91559506  0.70958613     0.08120
Br1308     Br  0.29898238  0.93162199  0.79059194    -0.02490
C1309       C  0.74461281  0.37311707  0.16246489     0.03160
C1310       C  0.74475091  0.39630450  0.14259682    -0.12990
C1311       C  0.74707314  0.39813711  0.10197625     0.00660
C1312       C  0.74943849  0.37653704  0.08097601    -0.11510
C1313       C  0.74815896  0.35253731  0.10043729     0.03150
C1314       C  0.74605200  0.35113125  0.14118098    -0.10930
H1315       H  0.74335808  0.41315170  0.15899369     0.08750
H1316       H  0.75087921  0.37770236  0.04953433     0.06280
H1317       H  0.74610199  0.33320521  0.15642634     0.06130
C1318       C  0.74536365  0.37405966  0.33084521     0.03160
C1319       C  0.74583380  0.39688904  0.35249464    -0.12990
C1320       C  0.74815876  0.39754053  0.39321111     0.00660
C1321       C  0.74933217  0.37468765  0.41242927    -0.11510
C1322       C  0.74677154  0.35071043  0.39120146     0.03150
C1323       C  0.74494380  0.35062193  0.35050728    -0.10930
H1324       H  0.74488171  0.41443650  0.33749855     0.08750
H1325       H  0.75073530  0.37482470  0.44386924     0.06280
H1326       H  0.74389474  0.33259071  0.33396356     0.06130
C1327       C  0.59278453  0.37508952  0.33122748     0.03160
C1328       C  0.61608131  0.39820244  0.35115871    -0.12990
C1329       C  0.61610713  0.39968438  0.39183468     0.00660
C1330       C  0.59224863  0.37819010  0.41285049    -0.11510
C1331       C  0.56945428  0.35417543  0.39336573     0.03150
C1332       C  0.57011651  0.35251230  0.35264053    -0.10930
H1333       H  0.63402239  0.41538699  0.33486936     0.08750
H1334       H  0.59219785  0.37934953  0.44432041     0.06280
H1335       H  0.55273669  0.33383938  0.33750199     0.06130
C1336       C  0.59461788  0.37564896  0.16288146     0.03160
C1337       C  0.61642067  0.39917298  0.14175486    -0.12990
C1338       C  0.61499983  0.39972272  0.10103013     0.00660
C1339       C  0.59103404  0.37693771  0.08138767    -0.11510
C1340       C  0.56951009  0.35296385  0.10221360     0.03150
C1341       C  0.57147325  0.35247587  0.14281309    -0.10930
H1342       H  0.63422039  0.41736005  0.15706913     0.08750
H1343       H  0.58984806  0.37715964  0.04994124     0.06280
H1344       H  0.55471135  0.33415345  0.15904809     0.06130
C1345       C  0.59131841  0.22054107  0.16243641     0.03160
C1346       C  0.56945758  0.22191036  0.14095472    -0.12990
C1347       C  0.56902679  0.22009305  0.10020475     0.00660
C1348       C  0.59130941  0.21802186  0.08075997    -0.11510
C1349       C  0.61446834  0.21898913  0.10186735     0.03150
C1350       C  0.61416701  0.21986114  0.14256202    -0.10930
H1351       H  0.55251158  0.22393089  0.15602518     0.08750
H1352       H  0.59145239  0.21721042  0.04927428     0.06280
H1353       H  0.63158099  0.21957711  0.15887108     0.06130
C1354       C  0.59273746  0.22125741  0.33075736     0.03160
C1355       C  0.57055440  0.22301284  0.35080114    -0.12990
C1356       C  0.56893139  0.22124403  0.39144537     0.00660
C1357       C  0.58989484  0.21791508  0.41234009    -0.11510
C1358       C  0.61295515  0.21742607  0.39266987     0.03150
C1359       C  0.61389347  0.21846114  0.35192168    -0.10930
H1360       H  0.55427213  0.22535826  0.33455262     0.08750
H1361       H  0.58901384  0.21707860  0.44382371     0.06280
H1362       H  0.63092891  0.21671950  0.33665155     0.06130
C1363       C  0.86255682  0.10489812  0.33116690     0.03160
C1364       C  0.88569505  0.12823094  0.35109834    -0.12990
C1365       C  0.88684867  0.12869227  0.39177457     0.00660
C1366       C  0.86516156  0.10504192  0.41290714    -0.11510
C1367       C  0.84117091  0.08215227  0.39348175     0.03150
C1368       C  0.83967579  0.08259813  0.35271666    -0.10930
H1369       H  0.90315353  0.14594352  0.33484624     0.08750
H1370       H  0.86615689  0.10523407  0.44438352     0.06280
H1371       H  0.82085595  0.06532525  0.33769775     0.06130
C1372       C  0.86409398  0.10658435  0.16254689     0.03160
C1373       C  0.84038930  0.08393442  0.14253032    -0.12990
C1374       C  0.84043081  0.08225432  0.10185793     0.00660
C1375       C  0.86430888  0.10373800  0.08084359    -0.11510
C1376       C  0.88755137  0.12729507  0.10044424     0.03150
C1377       C  0.88769312  0.12816080  0.14122082    -0.10930
H1378       H  0.82196696  0.06735095  0.15880954     0.08750
H1379       H  0.86409667  0.10289270  0.04935109     0.06280
H1380       H  0.90638988  0.14551261  0.15634273     0.06130
C1381       C  0.86039777  0.25898715  0.16237947     0.03160
C1382       C  0.88407877  0.25991339  0.14257598    -0.12990
C1383       C  0.88553132  0.26114671  0.10188790     0.00660
C1384       C  0.86341944  0.26228339  0.08071122    -0.11510
C1385       C  0.83888965  0.25999717  0.10001560     0.03150
C1386       C  0.83725364  0.25772470  0.14073969    -0.10930
H1387       H  0.90172120  0.26014867  0.15896522     0.08750
H1388       H  0.86458513  0.26342370  0.04925550     0.06280
H1389       H  0.81816379  0.25548356  0.15569551     0.06130
C1390       C  0.86149483  0.25852504  0.33098683     0.03160
C1391       C  0.88553089  0.26149331  0.35221613    -0.12990
C1392       C  0.88574264  0.26277055  0.39300374     0.00660
C1393       C  0.86219521  0.26235898  0.41263551    -0.11510
C1394       C  0.83780263  0.25883867  0.39170991     0.03150
C1395       C  0.83757435  0.25681191  0.35105732    -0.10930
H1396       H  0.90430059  0.26320820  0.33697518     0.08750
H1397       H  0.86222256  0.26338467  0.44411370     0.06280
H1398       H  0.81887510  0.25431331  0.33480153     0.06130
C1399       C  0.70619356  0.10377033  0.33098206     0.03160
C1400       C  0.70872270  0.08216515  0.35122077    -0.12990
C1401       C  0.70741554  0.08110315  0.39189835     0.00660
C1402       C  0.70412764  0.10223217  0.41261130    -0.11510
C1403       C  0.70371349  0.12521159  0.39275149     0.03150
C1404       C  0.70462287  0.12580399  0.35195905    -0.10930
H1405       H  0.71129467  0.06589544  0.33513196     0.08750
H1406       H  0.70347825  0.10166121  0.44411218     0.06280
H1407       H  0.70363205  0.14315628  0.33648056     0.06130
C1408       C  0.70807308  0.10556293  0.16284002     0.03160
C1409       C  0.70853734  0.08300756  0.14163617    -0.12990
C1410       C  0.70642001  0.08211262  0.10089995     0.00660
C1411       C  0.70415029  0.10418189  0.08125470    -0.11510
C1412       C  0.70489542  0.12739992  0.10215918     0.03150
C1413       C  0.70606754  0.12755029  0.14281869    -0.10930
H1414       H  0.71019603  0.06596473  0.15694428     0.08750
H1415       H  0.70324689  0.10406893  0.04977104     0.06280
H1416       H  0.70515760  0.14475093  0.15897731     0.06130
C1417       C  0.74518066  0.32526658  0.41107898     0.42490
N1418       N  0.75440747  0.29914643  0.44967824     0.01380
C1419       C  0.68876305  0.14787512  0.45078385    -0.06500
H1420       H  0.61645987  0.18895179  0.46889836     0.06870
C1421       C  0.67003443  0.23630778  0.09477030    -0.06850
Co1422     Co  0.72340016  0.23615500  0.42520702     0.74180
N1423       N  0.66259623  0.20763959  0.45666000    -0.26020
Co1424     Co  0.67935273  0.19253496  0.49996368     0.74070
C1425       C  0.63969954  0.22033470  0.08187403     0.42590
N1426       N  0.74099041  0.28567536  0.06485035     0.01000
N1427       N  0.66560780  0.21094972  0.04304683     0.01100
N1428       N  0.71653652  0.17719595  0.40173186    -0.46870
H1429       H  0.71494369  0.28532382  0.37315906     0.06860
N1430       N  0.67936878  0.22400323  0.42795373     0.01390
N1431       N  0.69730429  0.17855579  0.04309815     0.01130
C1432       C  0.70622535  0.15254406  0.08208882     0.42730
N1433       N  0.75750937  0.30233646  0.03618016    -0.25480
C1434       C  0.78189333  0.24095048  0.39862517    -0.06400
N1435       N  0.76045165  0.32639880  0.44315774    -0.46590
N1436       N  0.69107486  0.15128076  0.04985118    -0.46810
C1437       C  0.81221736  0.25677742  0.41183686     0.42510
N1438       N  0.71078749  0.19200450  0.42798620     0.01380
N1439       N  0.78915554  0.26986020  0.03611101    -0.25500
N1440       N  0.73606103  0.28035557  0.42384088    -0.26000
N1441       N  0.77236252  0.25343488  0.06474819     0.01010
H1442       H  0.83518925  0.28809696  0.02362403     0.06900
H1443       H  0.73647727  0.19249154  0.11990488     0.06940
N1444       N  0.69427249  0.17536659  0.45668283    -0.26040
N1445       N  0.68442737  0.22929177  0.06885893    -0.25660
N1446       N  0.78619380  0.26668822  0.44986421     0.01380
C1447       C  0.63681598  0.21704812  0.41422770     0.42780
C1448       C  0.76296577  0.32982094  0.04211507    -0.06910
N1449       N  0.71565391  0.19738024  0.06889429    -0.25660
H1450       H  0.67958497  0.25042269  0.11980929     0.06920
N1451       N  0.66474763  0.22986225  0.40169919    -0.46880
H1452       H  0.77652240  0.34854394  0.02401933     0.06910
C1453       C  0.81474629  0.25965279  0.07803658     0.42610
C1454       C  0.72913904  0.29486437  0.39808924    -0.06410
Co1455     Co  0.77241433  0.28512857  0.49285617     0.73820
N1456       N  0.73515934  0.30045331  0.09107482    -0.46600
C1457       C  0.70349080  0.14926231  0.41424412     0.42880
N1458       N  0.81334734  0.27239994  0.44361874    -0.46590
Co1459     Co  0.72839525  0.24149320  0.06755041     0.73890
C1460       C  0.72239328  0.18293056  0.09488303    -0.06910
C1461       C  0.63522567  0.20235765  0.45077346    -0.06480
N1462       N  0.76743796  0.24829968  0.42404974    -0.26000
N1463       N  0.63842737  0.20500397  0.04970890    -0.46770
H1464       H  0.67520588  0.12916580  0.46889466     0.06880
C1465       C  0.81642223  0.27476660  0.04178797    -0.06890
Cl1466     Cl  0.72587626  0.23883263  0.49638734    -0.49890
C1467       C  0.74815791  0.32841876  0.07862685     0.42640
H1468       H  0.77237655  0.22663250  0.37376279     0.06850
N1469       N  0.78686007  0.24714369  0.09070985    -0.46600
C1470       C  0.54539855  0.32776977  0.08209947     0.42490
N1471       N  0.00959514  0.30194770  0.04371981     0.01380
C1472       C  0.92442910  0.15051215  0.04206516    -0.06500
H1473       H  0.53746994  0.19233710  0.02353810     0.06870
C1474       C  0.53088181  0.23900325  0.39852585    -0.06850
Co1475     Co  0.97747233  0.23904425  0.06788408     0.74180
N1476       N  0.00988424  0.21077822  0.03612936    -0.26020
Co1477     Co  0.97787375  0.19538148  0.49295512     0.74070
C1478       C  0.54550056  0.22334612  0.41164721     0.42590
N1479       N  0.00911050  0.28797126  0.42847224     0.01000
N1480       N  0.00987215  0.21368263  0.44996789     0.01100
N1481       N  0.92568770  0.17972088  0.09134572    -0.46870
H1482       H  0.53542411  0.28776872  0.11958889     0.06860
N1483       N  0.00946985  0.22712201  0.06497624     0.01390
N1484       N  0.94573397  0.18109524  0.45004212     0.01130
C1485       C  0.91034271  0.15445783  0.41167314     0.42730
N1486       N  0.00951466  0.30481454  0.45722232    -0.25480
C1487       C  0.92409324  0.24412879  0.09489425    -0.06400
N1488       N  0.53115829  0.32910015  0.05024542    -0.46590
N1489       N  0.92472611  0.15371205  0.44362945    -0.46810
C1490       C  0.90966740  0.26002675  0.08204673     0.42510
N1491       N  0.94594557  0.19476580  0.06494476     0.01380
N1492       N  0.94538176  0.27274588  0.45714618    -0.25500
N1493       N  0.00904506  0.28312429  0.06937221    -0.26000
N1494       N  0.94558480  0.25615593  0.42844959     0.01010
H1495       H  0.91812272  0.29167758  0.46932080     0.06900
H1496       H  0.91947043  0.19398614  0.37358020     0.06940
N1497       N  0.94597651  0.17816643  0.03616373    -0.26040
N1498       N  0.00926898  0.23181320  0.42414188    -0.25660
N1499       N  0.94526378  0.26965902  0.04360577     0.01380
C1500       C  0.54543656  0.22069925  0.07825929     0.42780
C1501       C  0.53191097  0.33211835  0.45152373    -0.06910
N1502       N  0.94585373  0.19964191  0.42425745    -0.25660
H1503       H  0.53547848  0.25311081  0.37361024     0.06920
N1504       N  0.53014091  0.23325119  0.09111085    -0.46880
H1505       H  0.53744279  0.35093751  0.46976941     0.06910
C1506       C  0.91006707  0.26324878  0.41462923     0.42610
C1507       C  0.53072471  0.29743679  0.09494437    -0.06410
Co1508     Co  0.97744349  0.28793776  0.50053490     0.73820
N1509       N  0.52988639  0.30241339  0.40247395    -0.46600
C1510       C  0.91117754  0.15169125  0.07874235     0.42880
N1511       N  0.92389888  0.27546054  0.05013791    -0.46590
Co1512     Co  0.97739712  0.24390056  0.42557493     0.73890
C1513       C  0.92433778  0.18477198  0.39858453    -0.06910
C1514       C  0.53212991  0.20575207  0.04178064    -0.06480
N1515       N  0.94567227  0.25128079  0.06924174    -0.26000
N1516       N  0.53128316  0.20797039  0.44355727    -0.46770
H1517       H  0.91964125  0.13181133  0.02395991     0.06880
C1518       C  0.92334763  0.27811644  0.45120862    -0.06890
Cl1519     Cl  0.97749183  0.24155208  0.49673879    -0.49890
C1520       C  0.54526679  0.33033685  0.41513900     0.42640
H1521       H  0.91938966  0.22989078  0.11969424     0.06850
N1522       N  0.92505268  0.25025331  0.40217458    -0.46600
C1523       C  0.74605221  0.42224835  0.08201712     0.42490
N1524       N  0.75627059  0.45808098  0.04381856     0.01380
C1525       C  0.69221270  0.04490044  0.04268056    -0.06500
H1526       H  0.61896868  0.43178744  0.02474198     0.06870
C1527       C  0.67194831  0.43733690  0.39891604    -0.06850
Co1528     Co  0.72603133  0.49069959  0.06836370     0.74180
N1529       N  0.66517831  0.45883947  0.03697148    -0.26020
Co1530     Co  0.68224792  0.49069954  0.49372437     0.74070
C1531       C  0.64165097  0.42325127  0.41190848     0.42590
N1532       N  0.74268938  0.45819468  0.42875041     0.01000
N1533       N  0.66804392  0.45850703  0.45067988     0.01100
N1534       N  0.71993792  0.04336513  0.09180098    -0.46870
H1535       H  0.71622378  0.43247277  0.11978494     0.06860
N1536       N  0.68185829  0.45908297  0.06568189     0.01390
N1537       N  0.70052170  0.02266592  0.45076328     0.01130
C1538       C  0.70995283  0.05809076  0.41234862     0.42730
N1539       N  0.75917720  0.45785437  0.45733059    -0.25480
C1540       C  0.78467509  0.04405817  0.09494739    -0.06400
N1541       N  0.76167104  0.43642986  0.05017476    -0.46590
N1542       N  0.69462153  0.04393159  0.44431050    -0.46810
C1543       C  0.81495226  0.05845448  0.08182371     0.42510
N1544       N  0.71402794  0.02268447  0.06560350     0.01380
N1545       N  0.79165806  0.02220348  0.45733489    -0.25500
N1546       N  0.73805137  0.45876324  0.06957142    -0.26000
N1547       N  0.77484966  0.02189344  0.42874893     0.01010
H1548       H  0.83776277  0.05008825  0.46975286     0.06900
H1549       H  0.73979374  0.04811938  0.37417416     0.06940
N1550       N  0.69754285  0.02283418  0.03690209    -0.26040
N1551       N  0.68664679  0.45875612  0.42479659    -0.25660
N1552       N  0.78881989  0.02248355  0.04374266     0.01380
C1553       C  0.63910443  0.42373028  0.07940378     0.42780
C1554       C  0.76391656  0.43535232  0.45149271    -0.06910
N1555       N  0.71872182  0.02211154  0.42489537    -0.25660
H1556       H  0.68128312  0.43261056  0.37382673     0.06920
N1557       N  0.66706951  0.43864178  0.09194120    -0.46880
H1558       H  0.77719714  0.42984067  0.46959838     0.06910
C1559       C  0.81723810  0.05805178  0.41535726     0.42610
C1560       C  0.73054264  0.43706686  0.09505267    -0.06410
Co1561     Co  0.77464548  0.49014436  0.50066009     0.73820
N1562       N  0.73618995  0.43728313  0.40272101    -0.46600
C1563       C  0.70707645  0.05837797  0.07911192     0.42880
N1564       N  0.81603155  0.04392052  0.05003615    -0.46590
Co1565     Co  0.73077041  0.49022636  0.42606165     0.73890
C1566       C  0.72577656  0.04360576  0.39921951    -0.06910
C1567       C  0.63769044  0.43694120  0.04286278    -0.06480
N1568       N  0.77014764  0.02224716  0.06950914    -0.26000
N1569       N  0.64072426  0.43747406  0.44408144    -0.46770
H1570       H  0.67861971  0.04998757  0.02456913     0.06880
C1571       C  0.81896478  0.04458807  0.45159112    -0.06890
Cl1572     Cl  0.72842398  0.49042573  0.49721255    -0.49890
C1573       C  0.74863963  0.42184496  0.41518936     0.42640
H1574       H  0.77520544  0.04897569  0.11971130     0.06850
N1575       N  0.78932189  0.04270195  0.40280514    -0.46600
C1576       C  0.68775457  0.08007263  0.22546143    -0.09120
C1577       C  0.70834156  0.10543661  0.20591295     0.07070
C1578       C  0.72808562  0.13024486  0.22785402    -0.02890
C1579       C  0.72680503  0.12928964  0.26843912    -0.07340
C1580       C  0.70626973  0.10391164  0.28794803     0.06190
C1581       C  0.68648187  0.07912497  0.26604026    -0.02370
Br1582     Br  0.65611303  0.04398314  0.28962753    -0.02060
H1583       H  0.67214104  0.06104666  0.20901715     0.10100
H1584       H  0.74233052  0.14833941  0.28492660     0.08120
Br1585     Br  0.75838653  0.16548385  0.20440996    -0.02490
C1586       C  0.86612773  0.23923503  0.22543185    -0.09120
C1587       C  0.85992431  0.25876017  0.20559074     0.07070
C1588       C  0.85457825  0.27833710  0.22744445    -0.02890
C1589       C  0.85521933  0.27779058  0.26805461    -0.07340
C1590       C  0.86145246  0.25829173  0.28783480     0.06190
C1591       C  0.86698211  0.23886785  0.26606328    -0.02370
Br1592     Br  0.87432208  0.21034997  0.29003767    -0.02060
H1593       H  0.87010478  0.22394813  0.20916682     0.10100
H1594       H  0.85132700  0.29312845  0.28437417     0.08120
Br1595     Br  0.84830620  0.30775972  0.20397833    -0.02490
C1596       C  0.86855882  0.13042139  0.26811399    -0.09120
C1597       C  0.86230033  0.10465313  0.28794059     0.07070
C1598       C  0.85715602  0.07978239  0.26605380    -0.02890
C1599       C  0.85797378  0.08106022  0.22545713    -0.07340
C1600       C  0.86418293  0.10681362  0.20570095     0.06190
C1601       C  0.86964156  0.13175772  0.22752070    -0.02370
Br1602     Br  0.87718580  0.16780371  0.20381880    -0.02060
H1603       H  0.87238997  0.14966382  0.28436825     0.10100
H1604       H  0.85419099  0.06184962  0.20912214     0.08120
Br1605     Br  0.85088072  0.04402056  0.28937314    -0.02490
C1606       C  0.61668063  0.24041349  0.22556327    -0.09120
C1607       C  0.59105255  0.22064294  0.20556750     0.07070
C1608       C  0.56618093  0.20086111  0.22715974    -0.02890
C1609       C  0.56728951  0.20153128  0.26776239    -0.07340
C1610       C  0.59291521  0.22135423  0.28769046     0.06190
C1611       C  0.61783501  0.24092406  0.26615927    -0.02370
Br1612     Br  0.65353026  0.26979520  0.29043422    -0.02060
H1613       H  0.63590452  0.25577546  0.20942805     0.10100
H1614       H  0.54810976  0.18606292  0.28395258     0.08120
Br1615     Br  0.53074591  0.17105131  0.20327288    -0.02490
C1616       C  0.56973243  0.37152028  0.22573356    -0.09120
C1617       C  0.59481172  0.37564870  0.20597317     0.07070
C1618       C  0.61908903  0.37933023  0.22770065    -0.02890
C1619       C  0.61781916  0.37875429  0.26833069    -0.07340
C1620       C  0.59269920  0.37458484  0.28810254     0.06190
C1621       C  0.56851256  0.37112230  0.26630857    -0.02370
Br1622     Br  0.53397489  0.36780185  0.28993248    -0.02060
H1623       H  0.55108346  0.36909808  0.20941872     0.10100
H1624       H  0.63652233  0.38131276  0.28463881     0.08120
Br1625     Br  0.65394288  0.38369539  0.20375686    -0.02490
C1626       C  0.72325643  0.34996730  0.26754886    -0.09120
C1627       C  0.74509834  0.37436662  0.28770748     0.07070
C1628       C  0.76676295  0.39816801  0.26627798    -0.02890
C1629       C  0.76605974  0.39727581  0.22565444    -0.07340
C1630       C  0.74427039  0.37286228  0.20554249     0.06190
C1631       C  0.72264751  0.34906315  0.22686484    -0.02370
Br1632     Br  0.69101282  0.31559867  0.20188377    -0.02060
H1633       H  0.70639892  0.33163944  0.28361038     0.10100
H1634       H  0.78298657  0.41559505  0.20958613     0.08120
Br1635     Br  0.79898237  0.43162199  0.29059194    -0.02490
C1636       C  0.74461282  0.37311708  0.66246489     0.03160
C1637       C  0.74475092  0.39630450  0.64259682    -0.12990
C1638       C  0.74707315  0.39813711  0.60197625     0.00660
C1639       C  0.74943850  0.37653705  0.58097601    -0.11510
C1640       C  0.74815897  0.35253732  0.60043729     0.03150
C1641       C  0.74605201  0.35113125  0.64118098    -0.10930
H1642       H  0.74335808  0.41315170  0.65899369     0.08750
H1643       H  0.75087921  0.37770237  0.54953433     0.06280
H1644       H  0.74610200  0.33320522  0.65642634     0.06130
C1645       C  0.74536365  0.37405966  0.83084521     0.03160
C1646       C  0.74583380  0.39688904  0.85249464    -0.12990
C1647       C  0.74815876  0.39754053  0.89321111     0.00660
C1648       C  0.74933217  0.37468765  0.91242927    -0.11510
C1649       C  0.74677154  0.35071043  0.89120146     0.03150
C1650       C  0.74494381  0.35062193  0.85050728    -0.10930
H1651       H  0.74488172  0.41443650  0.83749855     0.08750
H1652       H  0.75073529  0.37482469  0.94386925     0.06280
H1653       H  0.74389474  0.33259071  0.83396356     0.06130
C1654       C  0.59278453  0.37508952  0.83122748     0.03160
C1655       C  0.61608131  0.39820245  0.85115871    -0.12990
C1656       C  0.61610713  0.39968438  0.89183468     0.00660
C1657       C  0.59224863  0.37819010  0.91285049    -0.11510
C1658       C  0.56945428  0.35417543  0.89336573     0.03150
C1659       C  0.57011651  0.35251230  0.85264053    -0.10930
H1660       H  0.63402239  0.41538699  0.83486936     0.08750
H1661       H  0.59219785  0.37934953  0.94432041     0.06280
H1662       H  0.55273669  0.33383938  0.83750199     0.06130
C1663       C  0.59461788  0.37564897  0.66288146     0.03160
C1664       C  0.61642067  0.39917299  0.64175486    -0.12990
C1665       C  0.61499983  0.39972273  0.60103013     0.00660
C1666       C  0.59103403  0.37693772  0.58138767    -0.11510
C1667       C  0.56951009  0.35296385  0.60221360     0.03150
C1668       C  0.57147325  0.35247587  0.64281310    -0.10930
H1669       H  0.63422039  0.41736006  0.65706912     0.08750
H1670       H  0.58984805  0.37715965  0.54994124     0.06280
H1671       H  0.55471135  0.33415346  0.65904809     0.06130
C1672       C  0.59131841  0.22054107  0.66243641     0.03160
C1673       C  0.56945758  0.22191036  0.64095472    -0.12990
C1674       C  0.56902679  0.22009306  0.60020476     0.00660
C1675       C  0.59130941  0.21802187  0.58075997    -0.11510
C1676       C  0.61446835  0.21898914  0.60186735     0.03150
C1677       C  0.61416702  0.21986115  0.64256202    -0.10930
H1678       H  0.55251159  0.22393090  0.65602518     0.08750
H1679       H  0.59145239  0.21721043  0.54927428     0.06280
H1680       H  0.63158100  0.21957712  0.65887108     0.06130
C1681       C  0.59273746  0.22125741  0.83075735     0.03160
C1682       C  0.57055440  0.22301284  0.85080114    -0.12990
C1683       C  0.56893139  0.22124403  0.89144537     0.00660
C1684       C  0.58989484  0.21791508  0.91234009    -0.11510
C1685       C  0.61295515  0.21742607  0.89266987     0.03150
C1686       C  0.61389347  0.21846114  0.85192168    -0.10930
H1687       H  0.55427213  0.22535826  0.83455262     0.08750
H1688       H  0.58901383  0.21707860  0.94382371     0.06280
H1689       H  0.63092891  0.21671951  0.83665155     0.06130
C1690       C  0.86255681  0.10489813  0.83116689     0.03160
C1691       C  0.88569504  0.12823095  0.85109834    -0.12990
C1692       C  0.88684866  0.12869227  0.89177457     0.00660
C1693       C  0.86516156  0.10504192  0.91290714    -0.11510
C1694       C  0.84117091  0.08215227  0.89348175     0.03150
C1695       C  0.83967579  0.08259813  0.85271665    -0.10930
H1696       H  0.90315351  0.14594353  0.83484623     0.08750
H1697       H  0.86615689  0.10523407  0.94438351     0.06280
H1698       H  0.82085595  0.06532524  0.83769775     0.06130
C1699       C  0.86409397  0.10658436  0.66254689     0.03160
C1700       C  0.84038929  0.08393442  0.64253032    -0.12990
C1701       C  0.84043081  0.08225432  0.60185793     0.00660
C1702       C  0.86430888  0.10373800  0.58084359    -0.11510
C1703       C  0.88755137  0.12729508  0.60044424     0.03150
C1704       C  0.88769311  0.12816081  0.64122082    -0.10930
H1705       H  0.82196696  0.06735095  0.65880954     0.08750
H1706       H  0.86409667  0.10289271  0.54935109     0.06280
H1707       H  0.90638986  0.14551262  0.65634273     0.06130
C1708       C  0.86039778  0.25898716  0.66237947     0.03160
C1709       C  0.88407878  0.25991341  0.64257598    -0.12990
C1710       C  0.88553132  0.26114672  0.60188790     0.00660
C1711       C  0.86341944  0.26228339  0.58071122    -0.11510
C1712       C  0.83888966  0.25999718  0.60001560     0.03150
C1713       C  0.83725364  0.25772472  0.64073970    -0.10930
H1714       H  0.90172120  0.26014868  0.65896522     0.08750
H1715       H  0.86458513  0.26342371  0.54925550     0.06280
H1716       H  0.81816379  0.25548358  0.65569551     0.06130
C1717       C  0.86149484  0.25852506  0.83098683     0.03160
C1718       C  0.88553090  0.26149332  0.85221614    -0.12990
C1719       C  0.88574265  0.26277056  0.89300374     0.00660
C1720       C  0.86219521  0.26235898  0.91263551    -0.11510
C1721       C  0.83780263  0.25883867  0.89170991     0.03150
C1722       C  0.83757435  0.25681192  0.85105732    -0.10930
H1723       H  0.90430059  0.26320822  0.83697518     0.08750
H1724       H  0.86222255  0.26338467  0.94411370     0.06280
H1725       H  0.81887511  0.25431332  0.83480153     0.06130
C1726       C  0.70619356  0.10377033  0.83098206     0.03160
C1727       C  0.70872271  0.08216514  0.85122077    -0.12990
C1728       C  0.70741554  0.08110315  0.89189835     0.00660
C1729       C  0.70412764  0.10223217  0.91261130    -0.11510
C1730       C  0.70371349  0.12521158  0.89275149     0.03150
C1731       C  0.70462287  0.12580399  0.85195905    -0.10930
H1732       H  0.71129467  0.06589543  0.83513196     0.08750
H1733       H  0.70347825  0.10166121  0.94411218     0.06280
H1734       H  0.70363205  0.14315628  0.83648056     0.06130
C1735       C  0.70807309  0.10556293  0.66284002     0.03160
C1736       C  0.70853735  0.08300756  0.64163617    -0.12990
C1737       C  0.70642001  0.08211262  0.60089995     0.00660
C1738       C  0.70415029  0.10418189  0.58125470    -0.11510
C1739       C  0.70489542  0.12739993  0.60215918     0.03150
C1740       C  0.70606755  0.12755030  0.64281869    -0.10930
H1741       H  0.71019603  0.06596473  0.65694428     0.08750
H1742       H  0.70324690  0.10406894  0.54977104     0.06280
H1743       H  0.70515761  0.14475094  0.65897731     0.06130
C1744       C  0.74518066  0.32526657  0.91107898     0.42490
N1745       N  0.75440746  0.29914643  0.94967825     0.01380
C1746       C  0.68876304  0.14787512  0.95078385    -0.06500
H1747       H  0.61645986  0.18895178  0.96889835     0.06870
C1748       C  0.67003444  0.23630779  0.59477030    -0.06850
Co1749     Co  0.72340016  0.23615500  0.92520702     0.74180
N1750       N  0.66259623  0.20763958  0.95665999    -0.26020
Co1751     Co  0.67935273  0.19253495  0.99996368     0.74070
C1752       C  0.63969955  0.22033471  0.58187403     0.42590
N1753       N  0.74099042  0.28567537  0.56485035     0.01000
N1754       N  0.66560780  0.21094973  0.54304684     0.01100
N1755       N  0.71653652  0.17719595  0.90173186    -0.46870
H1756       H  0.71494369  0.28532382  0.87315906     0.06860
N1757       N  0.67936878  0.22400322  0.92795373     0.01390
N1758       N  0.69730429  0.17855579  0.54309815     0.01130
C1759       C  0.70622535  0.15254406  0.58208882     0.42730
N1760       N  0.75750937  0.30233646  0.53618016    -0.25480
C1761       C  0.78189333  0.24095048  0.89862517    -0.06400
N1762       N  0.76045165  0.32639879  0.94315774    -0.46590
N1763       N  0.69107486  0.15128076  0.54985118    -0.46810
C1764       C  0.81221736  0.25677742  0.91183686     0.42510
N1765       N  0.71078748  0.19200449  0.92798620     0.01380
N1766       N  0.78915554  0.26986021  0.53611101    -0.25500
N1767       N  0.73606103  0.28035557  0.92384088    -0.26000
N1768       N  0.77236252  0.25343489  0.56474819     0.01010
H1769       H  0.83518925  0.28809696  0.52362402     0.06900
H1770       H  0.73647728  0.19249154  0.61990489     0.06940
N1771       N  0.69427249  0.17536659  0.95668283    -0.26040
N1772       N  0.68442738  0.22929177  0.56885893    -0.25660
N1773       N  0.78619380  0.26668822  0.94986421     0.01380
C1774       C  0.63681598  0.21704812  0.91422770     0.42780
C1775       C  0.76296578  0.32982094  0.54211507    -0.06910
N1776       N  0.71565391  0.19738024  0.56889429    -0.25660
H1777       H  0.67958498  0.25042270  0.61980929     0.06920
N1778       N  0.66474763  0.22986225  0.90169919    -0.46880
H1779       H  0.77652240  0.34854394  0.52401933     0.06910
C1780       C  0.81474630  0.25965280  0.57803658     0.42610
C1781       C  0.72913904  0.29486437  0.89808924    -0.06410
Co1782     Co  0.77241432  0.28512857  0.99285617     0.73820
N1783       N  0.73515935  0.30045332  0.59107482    -0.46600
C1784       C  0.70349080  0.14926231  0.91424412     0.42880
N1785       N  0.81334734  0.27239994  0.94361874    -0.46590
Co1786     Co  0.72839526  0.24149321  0.56755041     0.73890
C1787       C  0.72239329  0.18293057  0.59488304    -0.06910
C1788       C  0.63522567  0.20235764  0.95077346    -0.06480
N1789       N  0.76743796  0.24829968  0.92404974    -0.26000
N1790       N  0.63842737  0.20500398  0.54970890    -0.46770
H1791       H  0.67520588  0.12916580  0.96889466     0.06880
C1792       C  0.81642224  0.27476660  0.54178797    -0.06890
Cl1793     Cl  0.72587626  0.23883263  0.99638734    -0.49890
C1794       C  0.74815792  0.32841877  0.57862685     0.42640
H1795       H  0.77237655  0.22663250  0.87376279     0.06850
N1796       N  0.78686008  0.24714369  0.59070985    -0.46600
C1797       C  0.54539855  0.32776978  0.58209947     0.42490
N1798       N  0.00959514  0.30194770  0.54371981     0.01380
C1799       C  0.92442910  0.15051215  0.54206517    -0.06500
H1800       H  0.53746995  0.19233710  0.52353811     0.06870
C1801       C  0.53088181  0.23900325  0.89852584    -0.06850
Co1802     Co  0.97747234  0.23904425  0.56788408     0.74180
N1803       N  0.00988424  0.21077823  0.53612937    -0.26020
Co1804     Co  0.97787375  0.19538148  0.99295511     0.74070
C1805       C  0.54550056  0.22334612  0.91164720     0.42590
N1806       N  0.00911050  0.28797126  0.92847224     0.01000
N1807       N  0.00987215  0.21368263  0.94996788     0.01100
N1808       N  0.92568770  0.17972088  0.59134573    -0.46870
H1809       H  0.53542411  0.28776873  0.61958889     0.06860
N1810       N  0.00946986  0.22712201  0.56497624     0.01390
N1811       N  0.94573396  0.18109524  0.95004211     0.01130
C1812       C  0.91034270  0.15445784  0.91167313     0.42730
N1813       N  0.00951466  0.30481454  0.95722232    -0.25480
C1814       C  0.92409325  0.24412880  0.59489425    -0.06400
N1815       N  0.53115829  0.32910015  0.55024542    -0.46590
N1816       N  0.92472610  0.15371206  0.94362944    -0.46810
C1817       C  0.90966741  0.26002675  0.58204674     0.42510
N1818       N  0.94594557  0.19476580  0.56494477     0.01380
N1819       N  0.94538175  0.27274588  0.95714618    -0.25500
N1820       N  0.00904507  0.28312429  0.56937221    -0.26000
N1821       N  0.94558480  0.25615593  0.92844959     0.01010
H1822       H  0.91812272  0.29167758  0.96932081     0.06900
H1823       H  0.91947043  0.19398615  0.87358020     0.06940
N1824       N  0.94597651  0.17816643  0.53616374    -0.26040
N1825       N  0.00926897  0.23181320  0.92414188    -0.25660
N1826       N  0.94526378  0.26965903  0.54360577     0.01380
C1827       C  0.54543656  0.22069925  0.57825930     0.42780
C1828       C  0.53191096  0.33211835  0.95152374    -0.06910
N1829       N  0.94585372  0.19964191  0.92425744    -0.25660
H1830       H  0.53547848  0.25311081  0.87361024     0.06920
N1831       N  0.53014092  0.23325119  0.59111086    -0.46880
H1832       H  0.53744279  0.35093751  0.96976941     0.06910
C1833       C  0.91006707  0.26324879  0.91462923     0.42610
C1834       C  0.53072471  0.29743680  0.59494437    -0.06410
Co1835     Co  0.97744349  0.28793775  0.00053490     0.73820
N1836       N  0.52988639  0.30241339  0.90247394    -0.46600
C1837       C  0.91117754  0.15169126  0.57874235     0.42880
N1838       N  0.92389888  0.27546055  0.55013791    -0.46590
Co1839     Co  0.97739711  0.24390056  0.92557493     0.73890
C1840       C  0.92433778  0.18477198  0.89858453    -0.06910
C1841       C  0.53212992  0.20575208  0.54178065    -0.06480
N1842       N  0.94567227  0.25128080  0.56924175    -0.26000
N1843       N  0.53128316  0.20797039  0.94355727    -0.46770
H1844       H  0.91964125  0.13181133  0.52395992     0.06880
C1845       C  0.92334763  0.27811644  0.95120862    -0.06890
Cl1846     Cl  0.97749183  0.24155208  0.99673879    -0.49890
C1847       C  0.54526679  0.33033685  0.91513900     0.42640
H1848       H  0.91938967  0.22989079  0.61969425     0.06850
N1849       N  0.92505268  0.25025332  0.90217458    -0.46600
C1850       C  0.74605221  0.42224836  0.58201712     0.42490
N1851       N  0.75627059  0.45808098  0.54381856     0.01380
C1852       C  0.69221270  0.04490044  0.54268055    -0.06500
H1853       H  0.61896868  0.43178745  0.52474198     0.06870
C1854       C  0.67194831  0.43733690  0.89891604    -0.06850
Co1855     Co  0.72603133  0.49069959  0.56836370     0.74180
N1856       N  0.66517831  0.45883947  0.53697148    -0.26020
Co1857     Co  0.68224792  0.49069953  0.99372437     0.74070
C1858       C  0.64165097  0.42325127  0.91190848     0.42590
N1859       N  0.74268938  0.45819468  0.92875041     0.01000
N1860       N  0.66804392  0.45850703  0.95067989     0.01100
N1861       N  0.71993792  0.04336514  0.59180098    -0.46870
H1862       H  0.71622378  0.43247278  0.61978494     0.06860
N1863       N  0.68185829  0.45908297  0.56568188     0.01390
N1864       N  0.70052170  0.02266591  0.95076328     0.01130
C1865       C  0.70995283  0.05809076  0.91234863     0.42730
N1866       N  0.75917720  0.45785437  0.95733059    -0.25480
C1867       C  0.78467509  0.04405817  0.59494738    -0.06400
N1868       N  0.76167104  0.43642987  0.55017475    -0.46590
N1869       N  0.69462153  0.04393159  0.94431051    -0.46810
C1870       C  0.81495226  0.05845448  0.58182371     0.42510
N1871       N  0.71402794  0.02268448  0.56560350     0.01380
N1872       N  0.79165806  0.02220348  0.95733489    -0.25500
N1873       N  0.73805137  0.45876324  0.56957142    -0.26000
N1874       N  0.77484966  0.02189343  0.92874893     0.01010
H1875       H  0.83776278  0.05008825  0.96975286     0.06900
H1876       H  0.73979374  0.04811938  0.87417417     0.06940
N1877       N  0.69754285  0.02283418  0.53690209    -0.26040
N1878       N  0.68664679  0.45875612  0.92479659    -0.25660
N1879       N  0.78881989  0.02248355  0.54374265     0.01380
C1880       C  0.63910443  0.42373028  0.57940378     0.42780
C1881       C  0.76391656  0.43535232  0.95149272    -0.06910
N1882       N  0.71872182  0.02211154  0.92489537    -0.25660
H1883       H  0.68128312  0.43261056  0.87382673     0.06920
N1884       N  0.66706951  0.43864179  0.59194120    -0.46880
H1885       H  0.77719714  0.42984067  0.96959838     0.06910
C1886       C  0.81723810  0.05805177  0.91535726     0.42610
C1887       C  0.73054265  0.43706686  0.59505266    -0.06410
Co1888     Co  0.77464548  0.49014436  0.00066009     0.73820
N1889       N  0.73618995  0.43728312  0.90272101    -0.46600
C1890       C  0.70707645  0.05837797  0.57911192     0.42880
N1891       N  0.81603155  0.04392052  0.55003614    -0.46590
Co1892     Co  0.73077041  0.49022635  0.92606165     0.73890
C1893       C  0.72577657  0.04360575  0.89921951    -0.06910
C1894       C  0.63769044  0.43694121  0.54286278    -0.06480
N1895       N  0.77014764  0.02224716  0.56950913    -0.26000
N1896       N  0.64072426  0.43747406  0.94408144    -0.46770
H1897       H  0.67861972  0.04998758  0.52456913     0.06880
C1898       C  0.81896478  0.04458807  0.95159112    -0.06890
Cl1899     Cl  0.72842398  0.49042573  0.99721255    -0.49890
C1900       C  0.74863963  0.42184496  0.91518936     0.42640
H1901       H  0.77520544  0.04897569  0.61971129     0.06850
N1902       N  0.78932190  0.04270195  0.90280514    -0.46600
C1903       C  0.68775457  0.08007263  0.72546143    -0.09120
C1904       C  0.70834156  0.10543661  0.70591295     0.07070
C1905       C  0.72808563  0.13024486  0.72785402    -0.02890
C1906       C  0.72680503  0.12928964  0.76843912    -0.07340
C1907       C  0.70626974  0.10391164  0.78794803     0.06190
C1908       C  0.68648187  0.07912497  0.76604026    -0.02370
Br1909     Br  0.65611304  0.04398314  0.78962752    -0.02060
H1910       H  0.67214105  0.06104666  0.70901715     0.10100
H1911       H  0.74233053  0.14833941  0.78492660     0.08120
Br1912     Br  0.75838653  0.16548385  0.70440996    -0.02490
C1913       C  0.86612774  0.23923505  0.72543185    -0.09120
C1914       C  0.85992432  0.25876018  0.70559074     0.07070
C1915       C  0.85457826  0.27833711  0.72744445    -0.02890
C1916       C  0.85521934  0.27779060  0.76805461    -0.07340
C1917       C  0.86145246  0.25829175  0.78783480     0.06190
C1918       C  0.86698212  0.23886787  0.76606328    -0.02370
Br1919     Br  0.87432209  0.21034999  0.79003767    -0.02060
H1920       H  0.87010479  0.22394815  0.70916682     0.10100
H1921       H  0.85132701  0.29312846  0.78437418     0.08120
Br1922     Br  0.84830621  0.30775974  0.70397833    -0.02490
C1923       C  0.86855878  0.13042139  0.76811398    -0.09120
C1924       C  0.86230032  0.10465314  0.78794058     0.07070
C1925       C  0.85715603  0.07978241  0.76605380    -0.02890
C1926       C  0.85797379  0.08106023  0.72545713    -0.07340
C1927       C  0.86418292  0.10681362  0.70570095     0.06190
C1928       C  0.86964152  0.13175771  0.72752070    -0.02370
Br1929     Br  0.87718573  0.16780369  0.70381879    -0.02060
H1930       H  0.87238992  0.14966381  0.78436825     0.10100
H1931       H  0.85419102  0.06184964  0.70912214     0.08120
Br1932     Br  0.85088076  0.04402059  0.78937314    -0.02490
C1933       C  0.61668063  0.24041349  0.72556327    -0.09120
C1934       C  0.59105255  0.22064294  0.70556750     0.07070
C1935       C  0.56618094  0.20086111  0.72715974    -0.02890
C1936       C  0.56728952  0.20153127  0.76776238    -0.07340
C1937       C  0.59291521  0.22135423  0.78769046     0.06190
C1938       C  0.61783501  0.24092406  0.76615927    -0.02370
Br1939     Br  0.65353026  0.26979521  0.79043422    -0.02060
H1940       H  0.63590452  0.25577547  0.70942805     0.10100
H1941       H  0.54810977  0.18606291  0.78395258     0.08120
Br1942     Br  0.53074592  0.17105131  0.70327288    -0.02490
C1943       C  0.56973243  0.37152029  0.72573356    -0.09120
C1944       C  0.59481172  0.37564871  0.70597317     0.07070
C1945       C  0.61908903  0.37933024  0.72770065    -0.02890
C1946       C  0.61781916  0.37875429  0.76833069    -0.07340
C1947       C  0.59269920  0.37458484  0.78810254     0.06190
C1948       C  0.56851256  0.37112230  0.76630857    -0.02370
Br1949     Br  0.53397489  0.36780185  0.78993248    -0.02060
H1950       H  0.55108345  0.36909809  0.70941873     0.10100
H1951       H  0.63652233  0.38131277  0.78463881     0.08120
Br1952     Br  0.65394288  0.38369540  0.70375686    -0.02490
C1953       C  0.72325644  0.34996730  0.76754886    -0.09120
C1954       C  0.74509834  0.37436663  0.78770748     0.07070
C1955       C  0.76676295  0.39816801  0.76627799    -0.02890
C1956       C  0.76605975  0.39727582  0.72565444    -0.07340
C1957       C  0.74427040  0.37286229  0.70554249     0.06190
C1958       C  0.72264752  0.34906315  0.72686484    -0.02370
Br1959     Br  0.69101283  0.31559867  0.70188377    -0.02060
H1960       H  0.70639893  0.33163944  0.78361037     0.10100
H1961       H  0.78298658  0.41559506  0.70958614     0.08120
Br1962     Br  0.79898238  0.43162199  0.79059194    -0.02490
C1963       C  0.74461281  0.87311707  0.16246489     0.03160
C1964       C  0.74475091  0.89630450  0.14259682    -0.12990
C1965       C  0.74707314  0.89813711  0.10197625     0.00660
C1966       C  0.74943849  0.87653704  0.08097601    -0.11510
C1967       C  0.74815896  0.85253731  0.10043729     0.03150
C1968       C  0.74605200  0.85113124  0.14118098    -0.10930
H1969       H  0.74335808  0.91315170  0.15899369     0.08750
H1970       H  0.75087921  0.87770236  0.04953433     0.06280
H1971       H  0.74610199  0.83320521  0.15642634     0.06130
C1972       C  0.74536364  0.87405966  0.33084521     0.03160
C1973       C  0.74583379  0.89688904  0.35249464    -0.12990
C1974       C  0.74815876  0.89754053  0.39321111     0.00660
C1975       C  0.74933216  0.87468765  0.41242927    -0.11510
C1976       C  0.74677154  0.85071043  0.39120146     0.03150
C1977       C  0.74494380  0.85062193  0.35050728    -0.10930
H1978       H  0.74488171  0.91443650  0.33749855     0.08750
H1979       H  0.75073529  0.87482469  0.44386924     0.06280
H1980       H  0.74389473  0.83259071  0.33396355     0.06130
C1981       C  0.59278453  0.87508952  0.33122748     0.03160
C1982       C  0.61608130  0.89820244  0.35115871    -0.12990
C1983       C  0.61610713  0.89968439  0.39183468     0.00660
C1984       C  0.59224863  0.87819010  0.41285049    -0.11510
C1985       C  0.56945428  0.85417543  0.39336573     0.03150
C1986       C  0.57011651  0.85251230  0.35264053    -0.10930
H1987       H  0.63402239  0.91538699  0.33486936     0.08750
H1988       H  0.59219785  0.87934953  0.44432040     0.06280
H1989       H  0.55273669  0.83383938  0.33750199     0.06130
C1990       C  0.59461788  0.87564896  0.16288146     0.03160
C1991       C  0.61642066  0.89917298  0.14175485    -0.12990
C1992       C  0.61499983  0.89972272  0.10103013     0.00660
C1993       C  0.59103403  0.87693771  0.08138767    -0.11510
C1994       C  0.56951009  0.85296385  0.10221360     0.03150
C1995       C  0.57147325  0.85247587  0.14281309    -0.10930
H1996       H  0.63422039  0.91736005  0.15706912     0.08750
H1997       H  0.58984805  0.87715964  0.04994124     0.06280
H1998       H  0.55471135  0.83415345  0.15904809     0.06130
C1999       C  0.59131841  0.72054107  0.16243641     0.03160
C2000       C  0.56945758  0.72191036  0.14095472    -0.12990
C2001       C  0.56902679  0.72009305  0.10020475     0.00660
C2002       C  0.59130941  0.71802186  0.08075996    -0.11510
C2003       C  0.61446834  0.71898913  0.10186735     0.03150
C2004       C  0.61416701  0.71986114  0.14256201    -0.10930
H2005       H  0.55251158  0.72393089  0.15602518     0.08750
H2006       H  0.59145239  0.71721042  0.04927428     0.06280
H2007       H  0.63158099  0.71957711  0.15887108     0.06130
C2008       C  0.59273746  0.72125741  0.33075735     0.03160
C2009       C  0.57055440  0.72301283  0.35080114    -0.12990
C2010       C  0.56893139  0.72124403  0.39144537     0.00660
C2011       C  0.58989484  0.71791508  0.41234009    -0.11510
C2012       C  0.61295515  0.71742606  0.39266987     0.03150
C2013       C  0.61389346  0.71846114  0.35192168    -0.10930
H2014       H  0.55427212  0.72535826  0.33455262     0.08750
H2015       H  0.58901383  0.71707859  0.44382371     0.06280
H2016       H  0.63092891  0.71671950  0.33665155     0.06130
C2017       C  0.86255682  0.60489812  0.33116690     0.03160
C2018       C  0.88569505  0.62823094  0.35109834    -0.12990
C2019       C  0.88684867  0.62869227  0.39177457     0.00660
C2020       C  0.86516156  0.60504192  0.41290714    -0.11510
C2021       C  0.84117091  0.58215227  0.39348175     0.03150
C2022       C  0.83967579  0.58259813  0.35271666    -0.10930
H2023       H  0.90315353  0.64594352  0.33484624     0.08750
H2024       H  0.86615689  0.60523407  0.44438352     0.06280
H2025       H  0.82085595  0.56532525  0.33769775     0.06130
C2026       C  0.86409398  0.60658435  0.16254689     0.03160
C2027       C  0.84038930  0.58393442  0.14253032    -0.12990
C2028       C  0.84043081  0.58225432  0.10185793     0.00660
C2029       C  0.86430888  0.60373800  0.08084359    -0.11510
C2030       C  0.88755137  0.62729508  0.10044424     0.03150
C2031       C  0.88769312  0.62816080  0.14122082    -0.10930
H2032       H  0.82196697  0.56735096  0.15880954     0.08750
H2033       H  0.86409667  0.60289270  0.04935109     0.06280
H2034       H  0.90638988  0.64551261  0.15634273     0.06130
C2035       C  0.86039777  0.75898715  0.16237947     0.03160
C2036       C  0.88407877  0.75991340  0.14257597    -0.12990
C2037       C  0.88553132  0.76114672  0.10188790     0.00660
C2038       C  0.86341944  0.76228339  0.08071122    -0.11510
C2039       C  0.83888965  0.75999717  0.10001560     0.03150
C2040       C  0.83725364  0.75772470  0.14073969    -0.10930
H2041       H  0.90172120  0.76014867  0.15896522     0.08750
H2042       H  0.86458513  0.76342370  0.04925550     0.06280
H2043       H  0.81816379  0.75548356  0.15569551     0.06130
C2044       C  0.86149483  0.75852504  0.33098683     0.03160
C2045       C  0.88553089  0.76149331  0.35221614    -0.12990
C2046       C  0.88574264  0.76277055  0.39300374     0.00660
C2047       C  0.86219521  0.76235898  0.41263551    -0.11510
C2048       C  0.83780263  0.75883867  0.39170991     0.03150
C2049       C  0.83757435  0.75681191  0.35105732    -0.10930
H2050       H  0.90430059  0.76320821  0.33697518     0.08750
H2051       H  0.86222255  0.76338467  0.44411370     0.06280
H2052       H  0.81887510  0.75431331  0.33480153     0.06130
C2053       C  0.70619356  0.60377033  0.33098206     0.03160
C2054       C  0.70872270  0.58216514  0.35122077    -0.12990
C2055       C  0.70741554  0.58110315  0.39189835     0.00660
C2056       C  0.70412763  0.60223217  0.41261130    -0.11510
C2057       C  0.70371349  0.62521158  0.39275149     0.03150
C2058       C  0.70462286  0.62580399  0.35195905    -0.10930
H2059       H  0.71129467  0.56589543  0.33513196     0.08750
H2060       H  0.70347825  0.60166121  0.44411218     0.06280
H2061       H  0.70363205  0.64315628  0.33648056     0.06130
C2062       C  0.70807308  0.60556293  0.16284002     0.03160
C2063       C  0.70853734  0.58300755  0.14163617    -0.12990
C2064       C  0.70642001  0.58211262  0.10089995     0.00660
C2065       C  0.70415029  0.60418189  0.08125470    -0.11510
C2066       C  0.70489542  0.62739992  0.10215918     0.03150
C2067       C  0.70606754  0.62755029  0.14281869    -0.10930
H2068       H  0.71019603  0.56596473  0.15694428     0.08750
H2069       H  0.70324689  0.60406893  0.04977104     0.06280
H2070       H  0.70515760  0.64475093  0.15897731     0.06130
C2071       C  0.74518066  0.82526657  0.41107897     0.42490
N2072       N  0.75440746  0.79914643  0.44967824     0.01380
C2073       C  0.68876304  0.64787512  0.45078385    -0.06500
H2074       H  0.61645986  0.68895178  0.46889835     0.06870
C2075       C  0.67003443  0.73630778  0.09477030    -0.06850
Co2076     Co  0.72340016  0.73615500  0.42520702     0.74180
N2077       N  0.66259623  0.70763958  0.45665999    -0.26020
Co2078     Co  0.67935273  0.69253495  0.49996368     0.74070
C2079       C  0.63969954  0.72033470  0.08187403     0.42590
N2080       N  0.74099041  0.78567536  0.06485035     0.01000
N2081       N  0.66560780  0.71094972  0.04304683     0.01100
N2082       N  0.71653652  0.67719595  0.40173186    -0.46870
H2083       H  0.71494368  0.78532382  0.37315906     0.06860
N2084       N  0.67936878  0.72400323  0.42795373     0.01390
N2085       N  0.69730429  0.67855579  0.04309815     0.01130
C2086       C  0.70622534  0.65254406  0.08208882     0.42730
N2087       N  0.75750937  0.80233646  0.03618016    -0.25480
C2088       C  0.78189333  0.74095048  0.39862517    -0.06400
N2089       N  0.76045165  0.82639879  0.44315774    -0.46590
N2090       N  0.69107486  0.65128075  0.04985118    -0.46810
C2091       C  0.81221736  0.75677742  0.41183686     0.42510
N2092       N  0.71078748  0.69200449  0.42798620     0.01380
N2093       N  0.78915554  0.76986020  0.03611101    -0.25500
N2094       N  0.73606103  0.78035557  0.42384088    -0.26000
N2095       N  0.77236252  0.75343488  0.06474819     0.01010
H2096       H  0.83518925  0.78809696  0.02362403     0.06900
H2097       H  0.73647727  0.69249154  0.11990488     0.06940
N2098       N  0.69427249  0.67536659  0.45668283    -0.26040
N2099       N  0.68442737  0.72929176  0.06885893    -0.25660
N2100       N  0.78619380  0.76668822  0.44986421     0.01380
C2101       C  0.63681598  0.71704812  0.41422770     0.42780
C2102       C  0.76296577  0.82982094  0.04211507    -0.06910
N2103       N  0.71565391  0.69738024  0.06889429    -0.25660
H2104       H  0.67958497  0.75042269  0.11980929     0.06920
N2105       N  0.66474763  0.72986225  0.40169919    -0.46880
H2106       H  0.77652239  0.84854394  0.02401933     0.06910
C2107       C  0.81474629  0.75965279  0.07803657     0.42610
C2108       C  0.72913904  0.79486437  0.39808924    -0.06410
Co2109     Co  0.77241432  0.78512857  0.49285617     0.73820
N2110       N  0.73515934  0.80045331  0.09107482    -0.46600
C2111       C  0.70349080  0.64926231  0.41424412     0.42880
N2112       N  0.81334734  0.77239994  0.44361874    -0.46590
Co2113     Co  0.72839525  0.74149320  0.06755041     0.73890
C2114       C  0.72239328  0.68293056  0.09488303    -0.06910
C2115       C  0.63522567  0.70235764  0.45077346    -0.06480
N2116       N  0.76743796  0.74829968  0.42404974    -0.26000
N2117       N  0.63842737  0.70500397  0.04970889    -0.46770
H2118       H  0.67520588  0.62916580  0.46889466     0.06880
C2119       C  0.81642223  0.77476660  0.04178797    -0.06890
Cl2120     Cl  0.72587626  0.73883263  0.49638733    -0.49890
C2121       C  0.74815791  0.82841876  0.07862685     0.42640
H2122       H  0.77237655  0.72663250  0.37376279     0.06850
N2123       N  0.78686007  0.74714369  0.09070985    -0.46600
C2124       C  0.54539855  0.82776977  0.08209947     0.42490
N2125       N  0.00959514  0.80194770  0.04371981     0.01380
C2126       C  0.92442910  0.65051215  0.04206516    -0.06500
H2127       H  0.53746994  0.69233710  0.02353810     0.06870
C2128       C  0.53088181  0.73900324  0.39852585    -0.06850
Co2129     Co  0.97747233  0.73904425  0.06788408     0.74180
N2130       N  0.00988424  0.71077822  0.03612936    -0.26020
Co2131     Co  0.97787375  0.69538148  0.49295512     0.74070
C2132       C  0.54550056  0.72334612  0.41164721     0.42590
N2133       N  0.00911050  0.78797126  0.42847224     0.01000
N2134       N  0.00987215  0.71368264  0.44996789     0.01100
N2135       N  0.92568770  0.67972088  0.09134572    -0.46870
H2136       H  0.53542411  0.78776872  0.11958889     0.06860
N2137       N  0.00946986  0.72712201  0.06497624     0.01390
N2138       N  0.94573397  0.68109524  0.45004212     0.01130
C2139       C  0.91034271  0.65445783  0.41167314     0.42730
N2140       N  0.00951466  0.80481454  0.45722232    -0.25480
C2141       C  0.92409324  0.74412879  0.09489425    -0.06400
N2142       N  0.53115829  0.82910015  0.05024542    -0.46590
N2143       N  0.92472611  0.65371206  0.44362945    -0.46810
C2144       C  0.90966740  0.76002675  0.08204673     0.42510
N2145       N  0.94594557  0.69476580  0.06494476     0.01380
N2146       N  0.94538175  0.77274588  0.45714618    -0.25500
N2147       N  0.00904506  0.78312429  0.06937221    -0.26000
N2148       N  0.94558480  0.75615593  0.42844959     0.01010
H2149       H  0.91812272  0.79167758  0.46932080     0.06900
H2150       H  0.91947043  0.69398614  0.37358020     0.06940
N2151       N  0.94597651  0.67816643  0.03616373    -0.26040
N2152       N  0.00926898  0.73181320  0.42414188    -0.25660
N2153       N  0.94526378  0.76965903  0.04360576     0.01380
C2154       C  0.54543656  0.72069925  0.07825929     0.42780
C2155       C  0.53191096  0.83211835  0.45152373    -0.06910
N2156       N  0.94585373  0.69964191  0.42425745    -0.25660
H2157       H  0.53547848  0.75311081  0.37361024     0.06920
N2158       N  0.53014091  0.73325119  0.09111085    -0.46880
H2159       H  0.53744279  0.85093751  0.46976941     0.06910
C2160       C  0.91006707  0.76324878  0.41462923     0.42610
C2161       C  0.53072471  0.79743679  0.09494437    -0.06410
Co2162     Co  0.97744349  0.78793776  0.50053490     0.73820
N2163       N  0.52988639  0.80241339  0.40247394    -0.46600
C2164       C  0.91117755  0.65169126  0.07874235     0.42880
N2165       N  0.92389888  0.77546055  0.05013791    -0.46590
Co2166     Co  0.97739712  0.74390056  0.42557493     0.73890
C2167       C  0.92433778  0.68477198  0.39858453    -0.06910
C2168       C  0.53212991  0.70575207  0.04178064    -0.06480
N2169       N  0.94567227  0.75128080  0.06924174    -0.26000
N2170       N  0.53128316  0.70797039  0.44355727    -0.46770
H2171       H  0.91964125  0.63181133  0.02395991     0.06880
C2172       C  0.92334762  0.77811644  0.45120862    -0.06890
Cl2173     Cl  0.97749183  0.74155208  0.49673879    -0.49890
C2174       C  0.54526679  0.83033685  0.41513900     0.42640
H2175       H  0.91938966  0.72989078  0.11969424     0.06850
N2176       N  0.92505268  0.75025332  0.40217458    -0.46600
C2177       C  0.74605221  0.92224835  0.08201712     0.42490
N2178       N  0.75627059  0.95808097  0.04381856     0.01380
C2179       C  0.69221270  0.54490044  0.04268056    -0.06500
H2180       H  0.61896868  0.93178744  0.02474198     0.06870
C2181       C  0.67194830  0.93733690  0.39891604    -0.06850
Co2182     Co  0.72603133  0.99069959  0.06836370     0.74180
N2183       N  0.66517831  0.95883947  0.03697148    -0.26020
Co2184     Co  0.68224792  0.99069954  0.49372437     0.74070
C2185       C  0.64165097  0.92325127  0.41190848     0.42590
N2186       N  0.74268938  0.95819468  0.42875041     0.01000
N2187       N  0.66804391  0.95850703  0.45067988     0.01100
N2188       N  0.71993792  0.54336513  0.09180098    -0.46870
H2189       H  0.71622378  0.93247277  0.11978494     0.06860
N2190       N  0.68185828  0.95908297  0.06568189     0.01390
N2191       N  0.70052170  0.52266591  0.45076328     0.01130
C2192       C  0.70995283  0.55809076  0.41234862     0.42730
N2193       N  0.75917719  0.95785437  0.45733059    -0.25480
C2194       C  0.78467509  0.54405817  0.09494739    -0.06400
N2195       N  0.76167104  0.93642986  0.05017475    -0.46590
N2196       N  0.69462153  0.54393159  0.44431050    -0.46810
C2197       C  0.81495226  0.55845448  0.08182371     0.42510
N2198       N  0.71402794  0.52268447  0.06560350     0.01380
N2199       N  0.79165806  0.52220348  0.45733489    -0.25500
N2200       N  0.73805136  0.95876324  0.06957142    -0.26000
N2201       N  0.77484966  0.52189344  0.42874893     0.01010
H2202       H  0.83776277  0.55008825  0.46975286     0.06900
H2203       H  0.73979374  0.54811938  0.37417416     0.06940
N2204       N  0.69754285  0.52283418  0.03690210    -0.26040
N2205       N  0.68664679  0.95875612  0.42479658    -0.25660
N2206       N  0.78881989  0.52248355  0.04374266     0.01380
C2207       C  0.63910443  0.92373028  0.07940378     0.42780
C2208       C  0.76391656  0.93535232  0.45149271    -0.06910
N2209       N  0.71872182  0.52211154  0.42489537    -0.25660
H2210       H  0.68128312  0.93261056  0.37382673     0.06920
N2211       N  0.66706951  0.93864178  0.09194120    -0.46880
H2212       H  0.77719713  0.92984067  0.46959838     0.06910
C2213       C  0.81723810  0.55805178  0.41535726     0.42610
C2214       C  0.73054264  0.93706686  0.09505266    -0.06410
Co2215     Co  0.77464548  0.99014436  0.50066009     0.73820
N2216       N  0.73618995  0.93728312  0.40272101    -0.46600
C2217       C  0.70707645  0.55837797  0.07911192     0.42880
N2218       N  0.81603155  0.54392052  0.05003615    -0.46590
Co2219     Co  0.73077041  0.99022636  0.42606165     0.73890
C2220       C  0.72577656  0.54360576  0.39921951    -0.06910
C2221       C  0.63769044  0.93694120  0.04286278    -0.06480
N2222       N  0.77014764  0.52224716  0.06950914    -0.26000
N2223       N  0.64072426  0.93747406  0.44408144    -0.46770
H2224       H  0.67861971  0.54998757  0.02456913     0.06880
C2225       C  0.81896478  0.54458807  0.45159112    -0.06890
Cl2226     Cl  0.72842398  0.99042573  0.49721255    -0.49890
C2227       C  0.74863963  0.92184496  0.41518936     0.42640
H2228       H  0.77520544  0.54897569  0.11971130     0.06850
N2229       N  0.78932190  0.54270195  0.40280514    -0.46600
C2230       C  0.68775457  0.58007263  0.22546143    -0.09120
C2231       C  0.70834156  0.60543661  0.20591295     0.07070
C2232       C  0.72808562  0.63024486  0.22785402    -0.02890
C2233       C  0.72680502  0.62928964  0.26843912    -0.07340
C2234       C  0.70626973  0.60391164  0.28794803     0.06190
C2235       C  0.68648187  0.57912497  0.26604026    -0.02370
Br2236     Br  0.65611303  0.54398313  0.28962753    -0.02060
H2237       H  0.67214104  0.56104665  0.20901715     0.10100
H2238       H  0.74233052  0.64833940  0.28492660     0.08120
Br2239     Br  0.75838652  0.66548385  0.20440996    -0.02490
C2240       C  0.86612773  0.73923503  0.22543185    -0.09120
C2241       C  0.85992431  0.75876017  0.20559074     0.07070
C2242       C  0.85457825  0.77833710  0.22744445    -0.02890
C2243       C  0.85521933  0.77779058  0.26805461    -0.07340
C2244       C  0.86145246  0.75829173  0.28783480     0.06190
C2245       C  0.86698211  0.73886785  0.26606328    -0.02370
Br2246     Br  0.87432208  0.71034997  0.29003767    -0.02060
H2247       H  0.87010478  0.72394813  0.20916682     0.10100
H2248       H  0.85132700  0.79312845  0.28437417     0.08120
Br2249     Br  0.84830620  0.80775973  0.20397833    -0.02490
C2250       C  0.86855882  0.63042139  0.26811399    -0.09120
C2251       C  0.86230033  0.60465313  0.28794059     0.07070
C2252       C  0.85715602  0.57978239  0.26605380    -0.02890
C2253       C  0.85797377  0.58106022  0.22545713    -0.07340
C2254       C  0.86418294  0.60681362  0.20570095     0.06190
C2255       C  0.86964157  0.63175772  0.22752070    -0.02370
Br2256     Br  0.87718581  0.66780371  0.20381880    -0.02060
H2257       H  0.87238998  0.64966382  0.28436825     0.10100
H2258       H  0.85419099  0.56184962  0.20912214     0.08120
Br2259     Br  0.85088071  0.54402056  0.28937314    -0.02490
C2260       C  0.61668063  0.74041348  0.22556327    -0.09120
C2261       C  0.59105255  0.72064293  0.20556749     0.07070
C2262       C  0.56618093  0.70086111  0.22715974    -0.02890
C2263       C  0.56728951  0.70153128  0.26776238    -0.07340
C2264       C  0.59291521  0.72135423  0.28769046     0.06190
C2265       C  0.61783501  0.74092405  0.26615927    -0.02370
Br2266     Br  0.65353026  0.76979519  0.29043422    -0.02060
H2267       H  0.63590452  0.75577546  0.20942805     0.10100
H2268       H  0.54810976  0.68606292  0.28395258     0.08120
Br2269     Br  0.53074591  0.67105131  0.20327288    -0.02490
C2270       C  0.56973243  0.87152028  0.22573356    -0.09120
C2271       C  0.59481172  0.87564870  0.20597316     0.07070
C2272       C  0.61908903  0.87933023  0.22770065    -0.02890
C2273       C  0.61781916  0.87875429  0.26833069    -0.07340
C2274       C  0.59269920  0.87458484  0.28810254     0.06190
C2275       C  0.56851256  0.87112230  0.26630857    -0.02370
Br2276     Br  0.53397489  0.86780185  0.28993248    -0.02060
H2277       H  0.55108345  0.86909808  0.20941872     0.10100
H2278       H  0.63652233  0.88131276  0.28463881     0.08120
Br2279     Br  0.65394288  0.88369540  0.20375686    -0.02490
C2280       C  0.72325643  0.84996730  0.26754886    -0.09120
C2281       C  0.74509833  0.87436662  0.28770748     0.07070
C2282       C  0.76676294  0.89816800  0.26627798    -0.02890
C2283       C  0.76605974  0.89727581  0.22565444    -0.07340
C2284       C  0.74427039  0.87286228  0.20554249     0.06190
C2285       C  0.72264751  0.84906315  0.22686484    -0.02370
Br2286     Br  0.69101281  0.81559867  0.20188377    -0.02060
H2287       H  0.70639892  0.83163944  0.28361037     0.10100
H2288       H  0.78298657  0.91559505  0.20958613     0.08120
Br2289     Br  0.79898237  0.93162199  0.29059194    -0.02490
C2290       C  0.74461282  0.87311708  0.66246489     0.03160
C2291       C  0.74475091  0.89630450  0.64259682    -0.12990
C2292       C  0.74707315  0.89813711  0.60197625     0.00660
C2293       C  0.74943849  0.87653704  0.58097601    -0.11510
C2294       C  0.74815897  0.85253732  0.60043728     0.03150
C2295       C  0.74605201  0.85113125  0.64118098    -0.10930
H2296       H  0.74335808  0.91315170  0.65899369     0.08750
H2297       H  0.75087921  0.87770237  0.54953433     0.06280
H2298       H  0.74610200  0.83320522  0.65642634     0.06130
C2299       C  0.74536365  0.87405966  0.83084521     0.03160
C2300       C  0.74583380  0.89688904  0.85249464    -0.12990
C2301       C  0.74815876  0.89754053  0.89321111     0.00660
C2302       C  0.74933217  0.87468765  0.91242927    -0.11510
C2303       C  0.74677154  0.85071043  0.89120146     0.03150
C2304       C  0.74494380  0.85062193  0.85050728    -0.10930
H2305       H  0.74488172  0.91443650  0.83749855     0.08750
H2306       H  0.75073529  0.87482469  0.94386925     0.06280
H2307       H  0.74389474  0.83259071  0.83396355     0.06130
C2308       C  0.59278453  0.87508952  0.83122748     0.03160
C2309       C  0.61608130  0.89820245  0.85115871    -0.12990
C2310       C  0.61610713  0.89968438  0.89183468     0.00660
C2311       C  0.59224863  0.87819010  0.91285049    -0.11510
C2312       C  0.56945428  0.85417543  0.89336573     0.03150
C2313       C  0.57011651  0.85251230  0.85264053    -0.10930
H2314       H  0.63402239  0.91538699  0.83486936     0.08750
H2315       H  0.59219785  0.87934953  0.94432041     0.06280
H2316       H  0.55273669  0.83383938  0.83750199     0.06130
C2317       C  0.59461788  0.87564897  0.66288146     0.03160
C2318       C  0.61642066  0.89917299  0.64175485    -0.12990
C2319       C  0.61499982  0.89972273  0.60103013     0.00660
C2320       C  0.59103403  0.87693772  0.58138767    -0.11510
C2321       C  0.56951009  0.85296385  0.60221360     0.03150
C2322       C  0.57147325  0.85247587  0.64281309    -0.10930
H2323       H  0.63422039  0.91736006  0.65706912     0.08750
H2324       H  0.58984805  0.87715965  0.54994124     0.06280
H2325       H  0.55471135  0.83415346  0.65904809     0.06130
C2326       C  0.59131841  0.72054107  0.66243641     0.03160
C2327       C  0.56945758  0.72191036  0.64095472    -0.12990
C2328       C  0.56902679  0.72009306  0.60020475     0.00660
C2329       C  0.59130941  0.71802187  0.58075997    -0.11510
C2330       C  0.61446834  0.71898914  0.60186735     0.03150
C2331       C  0.61416702  0.71986115  0.64256201    -0.10930
H2332       H  0.55251158  0.72393090  0.65602518     0.08750
H2333       H  0.59145239  0.71721042  0.54927428     0.06280
H2334       H  0.63158100  0.71957712  0.65887108     0.06130
C2335       C  0.59273746  0.72125741  0.83075735     0.03160
C2336       C  0.57055440  0.72301283  0.85080114    -0.12990
C2337       C  0.56893139  0.72124403  0.89144536     0.00660
C2338       C  0.58989484  0.71791508  0.91234009    -0.11510
C2339       C  0.61295515  0.71742606  0.89266987     0.03150
C2340       C  0.61389347  0.71846114  0.85192168    -0.10930
H2341       H  0.55427213  0.72535826  0.83455262     0.08750
H2342       H  0.58901383  0.71707860  0.94382371     0.06280
H2343       H  0.63092891  0.71671950  0.83665155     0.06130
C2344       C  0.86255681  0.60489813  0.83116690     0.03160
C2345       C  0.88569504  0.62823095  0.85109834    -0.12990
C2346       C  0.88684866  0.62869227  0.89177457     0.00660
C2347       C  0.86516156  0.60504192  0.91290714    -0.11510
C2348       C  0.84117091  0.58215227  0.89348175     0.03150
C2349       C  0.83967579  0.58259813  0.85271666    -0.10930
H2350       H  0.90315352  0.64594353  0.83484623     0.08750
H2351       H  0.86615689  0.60523407  0.94438352     0.06280
H2352       H  0.82085595  0.56532524  0.83769775     0.06130
C2353       C  0.86409397  0.60658436  0.66254689     0.03160
C2354       C  0.84038929  0.58393442  0.64253032    -0.12990
C2355       C  0.84043081  0.58225432  0.60185793     0.00660
C2356       C  0.86430888  0.60373801  0.58084359    -0.11510
C2357       C  0.88755137  0.62729508  0.60044425     0.03150
C2358       C  0.88769311  0.62816081  0.64122082    -0.10930
H2359       H  0.82196696  0.56735095  0.65880954     0.08750
H2360       H  0.86409667  0.60289271  0.54935109     0.06280
H2361       H  0.90638986  0.64551263  0.65634273     0.06130
C2362       C  0.86039778  0.75898716  0.66237947     0.03160
C2363       C  0.88407878  0.75991341  0.64257598    -0.12990
C2364       C  0.88553132  0.76114672  0.60188790     0.00660
C2365       C  0.86341944  0.76228339  0.58071122    -0.11510
C2366       C  0.83888965  0.75999718  0.60001560     0.03150
C2367       C  0.83725364  0.75772472  0.64073969    -0.10930
H2368       H  0.90172120  0.76014869  0.65896522     0.08750
H2369       H  0.86458513  0.76342371  0.54925550     0.06280
H2370       H  0.81816379  0.75548358  0.65569551     0.06130
C2371       C  0.86149484  0.75852506  0.83098683     0.03160
C2372       C  0.88553090  0.76149332  0.85221614    -0.12990
C2373       C  0.88574265  0.76277056  0.89300374     0.00660
C2374       C  0.86219521  0.76235898  0.91263551    -0.11510
C2375       C  0.83780263  0.75883867  0.89170991     0.03150
C2376       C  0.83757435  0.75681192  0.85105732    -0.10930
H2377       H  0.90430059  0.76320822  0.83697518     0.08750
H2378       H  0.86222255  0.76338467  0.94411370     0.06280
H2379       H  0.81887511  0.75431332  0.83480153     0.06130
C2380       C  0.70619356  0.60377033  0.83098206     0.03160
C2381       C  0.70872271  0.58216514  0.85122077    -0.12990
C2382       C  0.70741554  0.58110315  0.89189835     0.00660
C2383       C  0.70412763  0.60223216  0.91261130    -0.11510
C2384       C  0.70371349  0.62521158  0.89275149     0.03150
C2385       C  0.70462287  0.62580398  0.85195905    -0.10930
H2386       H  0.71129467  0.56589543  0.83513196     0.08750
H2387       H  0.70347825  0.60166121  0.94411218     0.06280
H2388       H  0.70363205  0.64315627  0.83648056     0.06130
C2389       C  0.70807309  0.60556293  0.66284002     0.03160
C2390       C  0.70853734  0.58300756  0.64163617    -0.12990
C2391       C  0.70642001  0.58211262  0.60089995     0.00660
C2392       C  0.70415029  0.60418189  0.58125470    -0.11510
C2393       C  0.70489542  0.62739993  0.60215918     0.03150
C2394       C  0.70606755  0.62755030  0.64281869    -0.10930
H2395       H  0.71019603  0.56596473  0.65694428     0.08750
H2396       H  0.70324690  0.60406894  0.54977104     0.06280
H2397       H  0.70515761  0.64475094  0.65897731     0.06130
C2398       C  0.74518066  0.82526657  0.91107897     0.42490
N2399       N  0.75440746  0.79914643  0.94967824     0.01380
C2400       C  0.68876304  0.64787512  0.95078385    -0.06500
H2401       H  0.61645986  0.68895178  0.96889835     0.06870
C2402       C  0.67003444  0.73630779  0.59477030    -0.06850
Co2403     Co  0.72340016  0.73615499  0.92520702     0.74180
N2404       N  0.66259623  0.70763958  0.95665999    -0.26020
Co2405     Co  0.67935273  0.69253495  0.99996368     0.74070
C2406       C  0.63969955  0.72033470  0.58187403     0.42590
N2407       N  0.74099041  0.78567536  0.56485035     0.01000
N2408       N  0.66560780  0.71094972  0.54304683     0.01100
N2409       N  0.71653652  0.67719595  0.90173186    -0.46870
H2410       H  0.71494368  0.78532382  0.87315906     0.06860
N2411       N  0.67936878  0.72400322  0.92795373     0.01390
N2412       N  0.69730429  0.67855579  0.54309815     0.01130
C2413       C  0.70622535  0.65254406  0.58208882     0.42730
N2414       N  0.75750937  0.80233646  0.53618016    -0.25480
C2415       C  0.78189333  0.74095048  0.89862517    -0.06400
N2416       N  0.76045165  0.82639879  0.94315774    -0.46590
N2417       N  0.69107486  0.65128076  0.54985118    -0.46810
C2418       C  0.81221736  0.75677742  0.91183686     0.42510
N2419       N  0.71078748  0.69200449  0.92798619     0.01380
N2420       N  0.78915554  0.76986020  0.53611101    -0.25500
N2421       N  0.73606103  0.78035557  0.92384088    -0.26000
N2422       N  0.77236252  0.75343488  0.56474818     0.01010
H2423       H  0.83518925  0.78809696  0.52362402     0.06900
H2424       H  0.73647728  0.69249154  0.61990488     0.06940
N2425       N  0.69427249  0.67536659  0.95668283    -0.26040
N2426       N  0.68442738  0.72929177  0.56885893    -0.25660
N2427       N  0.78619380  0.76668822  0.94986421     0.01380
C2428       C  0.63681598  0.71704812  0.91422770     0.42780
C2429       C  0.76296577  0.82982094  0.54211507    -0.06910
N2430       N  0.71565391  0.69738024  0.56889429    -0.25660
H2431       H  0.67958498  0.75042270  0.61980929     0.06920
N2432       N  0.66474763  0.72986225  0.90169919    -0.46880
H2433       H  0.77652240  0.84854394  0.52401932     0.06910
C2434       C  0.81474630  0.75965280  0.57803657     0.42610
C2435       C  0.72913904  0.79486437  0.89808924    -0.06410
Co2436     Co  0.77241432  0.78512857  0.99285617     0.73820
N2437       N  0.73515934  0.80045332  0.59107482    -0.46600
C2438       C  0.70349080  0.64926231  0.91424411     0.42880
N2439       N  0.81334734  0.77239994  0.94361874    -0.46590
Co2440     Co  0.72839525  0.74149321  0.56755041     0.73890
C2441       C  0.72239328  0.68293057  0.59488304    -0.06910
C2442       C  0.63522567  0.70235764  0.95077346    -0.06480
N2443       N  0.76743796  0.74829968  0.92404974    -0.26000
N2444       N  0.63842737  0.70500398  0.54970889    -0.46770
H2445       H  0.67520588  0.62916580  0.96889466     0.06880
C2446       C  0.81642224  0.77476660  0.54178797    -0.06890
Cl2447     Cl  0.72587626  0.73883263  0.99638733    -0.49890
C2448       C  0.74815792  0.82841877  0.57862685     0.42640
H2449       H  0.77237655  0.72663250  0.87376279     0.06850
N2450       N  0.78686007  0.74714369  0.59070985    -0.46600
C2451       C  0.54539855  0.82776978  0.58209947     0.42490
N2452       N  0.00959514  0.80194771  0.54371981     0.01380
C2453       C  0.92442910  0.65051215  0.54206517    -0.06500
H2454       H  0.53746995  0.69233710  0.52353811     0.06870
C2455       C  0.53088181  0.73900325  0.89852584    -0.06850
Co2456     Co  0.97747234  0.73904425  0.56788408     0.74180
N2457       N  0.00988424  0.71077823  0.53612937    -0.26020
Co2458     Co  0.97787375  0.69538148  0.99295511     0.74070
C2459       C  0.54550056  0.72334612  0.91164720     0.42590
N2460       N  0.00911050  0.78797126  0.92847224     0.01000
N2461       N  0.00987215  0.71368264  0.94996788     0.01100
N2462       N  0.92568770  0.67972088  0.59134573    -0.46870
H2463       H  0.53542411  0.78776873  0.61958889     0.06860
N2464       N  0.00946986  0.72712202  0.56497624     0.01390
N2465       N  0.94573397  0.68109524  0.95004211     0.01130
C2466       C  0.91034271  0.65445784  0.91167314     0.42730
N2467       N  0.00951466  0.80481454  0.95722232    -0.25480
C2468       C  0.92409325  0.74412880  0.59489425    -0.06400
N2469       N  0.53115829  0.82910015  0.55024542    -0.46590
N2470       N  0.92472610  0.65371206  0.94362944    -0.46810
C2471       C  0.90966741  0.76002676  0.58204673     0.42510
N2472       N  0.94594557  0.69476580  0.56494477     0.01380
N2473       N  0.94538176  0.77274588  0.95714618    -0.25500
N2474       N  0.00904507  0.78312429  0.56937221    -0.26000
N2475       N  0.94558480  0.75615593  0.92844959     0.01010
H2476       H  0.91812273  0.79167759  0.96932080     0.06900
H2477       H  0.91947043  0.69398615  0.87358020     0.06940
N2478       N  0.94597651  0.67816643  0.53616374    -0.26040
N2479       N  0.00926898  0.73181320  0.92414188    -0.25660
N2480       N  0.94526378  0.76965903  0.54360577     0.01380
C2481       C  0.54543656  0.72069925  0.57825929     0.42780
C2482       C  0.53191096  0.83211835  0.95152373    -0.06910
N2483       N  0.94585372  0.69964191  0.92425744    -0.25660
H2484       H  0.53547848  0.75311081  0.87361024     0.06920
N2485       N  0.53014091  0.73325119  0.59111086    -0.46880
H2486       H  0.53744279  0.85093751  0.96976941     0.06910
C2487       C  0.91006707  0.76324879  0.91462923     0.42610
C2488       C  0.53072471  0.79743680  0.59494437    -0.06410
Co2489     Co  0.97744349  0.78793776  0.00053490     0.73820
N2490       N  0.52988639  0.80241339  0.90247394    -0.46600
C2491       C  0.91117754  0.65169126  0.57874235     0.42880
N2492       N  0.92389888  0.77546055  0.55013791    -0.46590
Co2493     Co  0.97739712  0.74390056  0.92557493     0.73890
C2494       C  0.92433778  0.68477198  0.89858453    -0.06910
C2495       C  0.53212991  0.70575208  0.54178065    -0.06480
N2496       N  0.94567227  0.75128080  0.56924175    -0.26000
N2497       N  0.53128316  0.70797039  0.94355727    -0.46770
H2498       H  0.91964125  0.63181134  0.52395992     0.06880
C2499       C  0.92334763  0.77811644  0.95120862    -0.06890
Cl2500     Cl  0.97749183  0.74155208  0.99673879    -0.49890
C2501       C  0.54526679  0.83033685  0.91513900     0.42640
H2502       H  0.91938967  0.72989079  0.61969425     0.06850
N2503       N  0.92505268  0.75025332  0.90217458    -0.46600
C2504       C  0.74605221  0.92224835  0.58201712     0.42490
N2505       N  0.75627059  0.95808098  0.54381856     0.01380
C2506       C  0.69221270  0.54490044  0.54268055    -0.06500
H2507       H  0.61896868  0.93178745  0.52474197     0.06870
C2508       C  0.67194831  0.93733690  0.89891604    -0.06850
Co2509     Co  0.72603133  0.99069959  0.56836370     0.74180
N2510       N  0.66517830  0.95883947  0.53697148    -0.26020
Co2511     Co  0.68224792  0.99069953  0.99372437     0.74070
C2512       C  0.64165097  0.92325127  0.91190848     0.42590
N2513       N  0.74268938  0.95819468  0.92875041     0.01000
N2514       N  0.66804392  0.95850703  0.95067988     0.01100
N2515       N  0.71993792  0.54336514  0.59180098    -0.46870
H2516       H  0.71622378  0.93247278  0.61978494     0.06860
N2517       N  0.68185828  0.95908297  0.56568188     0.01390
N2518       N  0.70052170  0.52266591  0.95076328     0.01130
C2519       C  0.70995283  0.55809076  0.91234863     0.42730
N2520       N  0.75917720  0.95785437  0.95733059    -0.25480
C2521       C  0.78467509  0.54405817  0.59494738    -0.06400
N2522       N  0.76167104  0.93642986  0.55017475    -0.46590
N2523       N  0.69462153  0.54393159  0.94431051    -0.46810
C2524       C  0.81495226  0.55845448  0.58182371     0.42510
N2525       N  0.71402794  0.52268448  0.56560350     0.01380
N2526       N  0.79165806  0.52220348  0.95733489    -0.25500
N2527       N  0.73805136  0.95876324  0.56957141    -0.26000
N2528       N  0.77484966  0.52189343  0.92874893     0.01010
H2529       H  0.83776278  0.55008825  0.96975286     0.06900
H2530       H  0.73979374  0.54811938  0.87417417     0.06940
N2531       N  0.69754285  0.52283418  0.53690209    -0.26040
N2532       N  0.68664679  0.95875612  0.92479659    -0.25660
N2533       N  0.78881989  0.52248355  0.54374265     0.01380
C2534       C  0.63910442  0.92373028  0.57940378     0.42780
C2535       C  0.76391656  0.93535232  0.95149272    -0.06910
N2536       N  0.71872182  0.52211154  0.92489537    -0.25660
H2537       H  0.68128312  0.93261056  0.87382673     0.06920
N2538       N  0.66706951  0.93864179  0.59194120    -0.46880
H2539       H  0.77719713  0.92984067  0.96959838     0.06910
C2540       C  0.81723810  0.55805177  0.91535726     0.42610
C2541       C  0.73054264  0.93706686  0.59505266    -0.06410
Co2542     Co  0.77464548  0.99014435  0.00066009     0.73820
N2543       N  0.73618995  0.93728312  0.90272101    -0.46600
C2544       C  0.70707645  0.55837797  0.57911192     0.42880
N2545       N  0.81603155  0.54392052  0.55003614    -0.46590
Co2546     Co  0.73077041  0.99022635  0.92606165     0.73890
C2547       C  0.72577657  0.54360575  0.89921951    -0.06910
C2548       C  0.63769044  0.93694121  0.54286277    -0.06480
N2549       N  0.77014764  0.52224716  0.56950914    -0.26000
N2550       N  0.64072426  0.93747406  0.94408144    -0.46770
H2551       H  0.67861972  0.54998757  0.52456913     0.06880
C2552       C  0.81896478  0.54458807  0.95159112    -0.06890
Cl2553     Cl  0.72842398  0.99042573  0.99721255    -0.49890
C2554       C  0.74863963  0.92184496  0.91518936     0.42640
H2555       H  0.77520544  0.54897569  0.61971129     0.06850
N2556       N  0.78932190  0.54270195  0.90280514    -0.46600
C2557       C  0.68775457  0.58007263  0.72546143    -0.09120
C2558       C  0.70834156  0.60543661  0.70591295     0.07070
C2559       C  0.72808562  0.63024486  0.72785402    -0.02890
C2560       C  0.72680503  0.62928964  0.76843912    -0.07340
C2561       C  0.70626974  0.60391164  0.78794803     0.06190
C2562       C  0.68648187  0.57912497  0.76604026    -0.02370
Br2563     Br  0.65611303  0.54398313  0.78962752    -0.02060
H2564       H  0.67214105  0.56104666  0.70901715     0.10100
H2565       H  0.74233052  0.64833940  0.78492660     0.08120
Br2566     Br  0.75838653  0.66548385  0.70440996    -0.02490
C2567       C  0.86612774  0.73923505  0.72543185    -0.09120
C2568       C  0.85992432  0.75876018  0.70559074     0.07070
C2569       C  0.85457826  0.77833711  0.72744445    -0.02890
C2570       C  0.85521934  0.77779060  0.76805461    -0.07340
C2571       C  0.86145246  0.75829175  0.78783480     0.06190
C2572       C  0.86698212  0.73886787  0.76606328    -0.02370
Br2573     Br  0.87432209  0.71034999  0.79003767    -0.02060
H2574       H  0.87010479  0.72394815  0.70916682     0.10100
H2575       H  0.85132701  0.79312846  0.78437418     0.08120
Br2576     Br  0.84830620  0.80775974  0.70397833    -0.02490
C2577       C  0.86855879  0.63042139  0.76811399    -0.09120
C2578       C  0.86230032  0.60465314  0.78794058     0.07070
C2579       C  0.85715603  0.57978241  0.76605380    -0.02890
C2580       C  0.85797378  0.58106023  0.72545713    -0.07340
C2581       C  0.86418292  0.60681362  0.70570095     0.06190
C2582       C  0.86964153  0.63175771  0.72752070    -0.02370
Br2583     Br  0.87718573  0.66780369  0.70381879    -0.02060
H2584       H  0.87238992  0.64966381  0.78436825     0.10100
H2585       H  0.85419102  0.56184964  0.70912214     0.08120
Br2586     Br  0.85088076  0.54402059  0.78937314    -0.02490
C2587       C  0.61668063  0.74041349  0.72556327    -0.09120
C2588       C  0.59105255  0.72064294  0.70556750     0.07070
C2589       C  0.56618093  0.70086111  0.72715974    -0.02890
C2590       C  0.56728951  0.70153127  0.76776238    -0.07340
C2591       C  0.59291521  0.72135423  0.78769046     0.06190
C2592       C  0.61783501  0.74092406  0.76615927    -0.02370
Br2593     Br  0.65353026  0.76979520  0.79043422    -0.02060
H2594       H  0.63590452  0.75577547  0.70942805     0.10100
H2595       H  0.54810977  0.68606291  0.78395258     0.08120
Br2596     Br  0.53074592  0.67105131  0.70327288    -0.02490
C2597       C  0.56973242  0.87152029  0.72573356    -0.09120
C2598       C  0.59481172  0.87564871  0.70597316     0.07070
C2599       C  0.61908903  0.87933024  0.72770065    -0.02890
C2600       C  0.61781916  0.87875429  0.76833069    -0.07340
C2601       C  0.59269919  0.87458484  0.78810254     0.06190
C2602       C  0.56851256  0.87112230  0.76630857    -0.02370
Br2603     Br  0.53397489  0.86780185  0.78993248    -0.02060
H2604       H  0.55108345  0.86909809  0.70941873     0.10100
H2605       H  0.63652233  0.88131277  0.78463881     0.08120
Br2606     Br  0.65394288  0.88369540  0.70375686    -0.02490
C2607       C  0.72325644  0.84996730  0.76754886    -0.09120
C2608       C  0.74509834  0.87436662  0.78770748     0.07070
C2609       C  0.76676295  0.89816801  0.76627798    -0.02890
C2610       C  0.76605975  0.89727581  0.72565444    -0.07340
C2611       C  0.74427040  0.87286229  0.70554249     0.06190
C2612       C  0.72264752  0.84906315  0.72686484    -0.02370
Br2613     Br  0.69101282  0.81559867  0.70188377    -0.02060
H2614       H  0.70639893  0.83163944  0.78361037     0.10100
H2615       H  0.78298657  0.91559506  0.70958613     0.08120
Br2616     Br  0.79898238  0.93162199  0.79059194    -0.02490
loop_ 
_geom_bond_atom_site_label_1 
_geom_bond_atom_site_label_2 
_geom_bond_distance 
_geom_bond_site_symmetry_2 
_ccdc_geom_bond_type 
C1            C2   1.400       .  A
C1            C6   1.403       .  A
C1          C322   1.482       .  S
C2            C3   1.402       .  A
C2            H7   1.084       .  S
C3            C4   1.404       .  A
C3          C215   1.472       .  S
C4            C5   1.405       .  A
C4            H8   1.084       .  S
C5            C6   1.405       .  A
C5          C159   1.474       .  S
C6            H9   1.084       .  S
C10          C11   1.403       .  A
C10          C15   1.402       .  A
C10         C319   1.485       .  S
C11          C12   1.405       .  A
C11          H16   1.084       .  S
C12          C13   1.405       .  A
C12         C265   1.475       .  S
C13          C14   1.405       .  A
C13          H17   1.084       .  S
C14          C15   1.403       .  A
C14         C109   1.473       .  S
C15          H18   1.084       .  S
C19          C20   1.401       .  A
C19          C24   1.403       .  A
C19         C312   1.484       .  S
C20          C21   1.401       .  A
C20          H25   1.084       .  S
C21          C22   1.403       .  A
C21         C223   1.468       .  S
C22          C23   1.403       .  A
C22          H26   1.084       .  S
C23          C24   1.405       .  A
C23         C212   1.472       .  S
C24          H27   1.084       .  S
C28          C29   1.402       .  A
C28          C33   1.401       .  A
C28         C309   1.483       .  S
C29          C30   1.404       .  A
C29          H34   1.084       .  S
C30          C31   1.405       .  A
C30         C245   1.472       .  S
C31          C32   1.403       .  A
C31          H35   1.084       .  S
C32          C33   1.402       .  A
C32         C162   1.471       .  S
C33          H36   1.084       .  S
C37          C38   1.403       .  A
C37          C42   1.402       .  A
C37         C299   1.484       .  S
C38          C39   1.404       .  A
C38          H43   1.084       .  S
C39          C40   1.403       .  A
C39         C192   1.471       .  S
C40          C41   1.401       .  A
C40          H44   1.084       .  S
C41          C42   1.401       .  A
C41         C117   1.468       .  S
C42          H45   1.084       .  S
C46          C47   1.401       .  A
C46          C51   1.402       .  A
C46         C302   1.482       .  S
C47          C48   1.402       .  A
C47          H52   1.084       .  S
C48          C49   1.403       .  A
C48         C170   1.470       .  S
C49          C50   1.404       .  A
C49          H53   1.084       .  S
C50          C51   1.403       .  A
C50         C139   1.471       .  S
C51          H54   1.084       .  S
C55          C56   1.402       .  A
C55          C60   1.404       .  A
C55         C289   1.487       .  S
C56          C57   1.401       .  A
C56          H61   1.084       .  S
C57          C58   1.403       .  A
C57         C177   1.469       .  S
C58          C59   1.404       .  A
C58          H62   1.084       .  S
C59          C60   1.406       .  A
C59         C251   1.474       .  S
C60          H63   1.084       .  S
C64          C65   1.402       .  A
C64          C69   1.403       .  A
C64         C292   1.485       .  S
C65          C66   1.402       .  A
C65          H70   1.084       .  S
C66          C67   1.403       .  A
C66         C235   1.471       .  S
C67          C68   1.404       .  A
C67          H71   1.084       .  S
C68          C69   1.403       .  A
C68         C202   1.471       .  S
C69          H72   1.084       .  S
C73          C74   1.402       .  A
C73          C78   1.404       .  A
C73         C279   1.487       .  S
C74          C75   1.402       .  A
C74          H79   1.084       .  S
C75          C76   1.403       .  A
C75         C182   1.472       .  S
C76          C77   1.405       .  A
C76          H80   1.084       .  S
C77          C78   1.406       .  A
C77         C145   1.475       .  S
C78          H81   1.084       .  S
C82          C83   1.404       .  A
C82          C87   1.401       .  A
C82         C282   1.485       .  S
C83          C84   1.405       .  A
C83          H88   1.084       .  S
C84          C85   1.405       .  A
C84         C198   1.474       .  S
C85          C86   1.404       .  A
C85          H89   1.084       .  S
C86          C87   1.402       .  A
C86         C129   1.472       .  S
C87          H90   1.084       .  S
C91          C92   1.400       .  A
C91          C96   1.403       .  A
C91         C272   1.481       .  S
C92          C93   1.401       .  A
C92          H97   1.084       .  S
C93          C94   1.403       .  A
C93         C230   1.468       .  S
C94          C95   1.403       .  A
C94          H98   1.084       .  S
C95          C96   1.404       .  A
C95         C149   1.471       .  S
C96          H99   1.084       .  S
C100        C101   1.404       .  A
C100        C105   1.400       .  A
C100        C269   1.482       .  S
C101        C102   1.405       .  A
C101        H106   1.084       .  S
C102        C103   1.404       .  A
C102        C255   1.472       .  S
C103        C104   1.401       .  A
C103        H107   1.084       .  S
C104        C105   1.400       .  A
C104        C124   1.467       .  S
C105        H108   1.084       .  S
C109        C146   1.457       .  S
C109        N127   1.351       .  A
N110        N127   1.327       .  A
N110        N132   1.321       .  A
N110       Co147   2.091       .  S
C111        C149   1.460       .  S
C111        H156   1.082       .  S
C111        N136   1.343       .  A
H112        C153   1.082       .  S
C113        C117   1.455       .  S
C113        H142   1.082       .  S
C113        N137   1.337       .  A
Co114       N132   2.079       .  S
Co114       N122   2.081       .  S
Co114       N154   2.079       .  S
Co114       N130   2.079       .  S
Co114      Cl158   2.453       .  S
N115        C153   1.343       .  A
N115        N122   1.320       .  A
N115       Co116   2.087       .  S
Co116       N136   2.088       .  S
Co116       N446   2.088       .  S
Co116       N450   2.087       .  S
Co116      Cl158   2.450       .  S
C117        N155   1.350       .  A
N118        N125   1.320       .  A
N118        N148   1.323       .  A
N118       Co151   2.080       .  S
N119        N137   1.321       .  A
N119        N155   1.326       .  A
N119       Co443   2.088   1_554  S
N120        C149   1.348       .  A
N120        N130   1.323       .  A
H121        C146   1.082       .  S
N122        N143   1.323       .  A
N123        N141   1.320       .  A
N123        N128   1.326       .  A
N123       Co443   2.087   1_554  S
C124        C152   1.454       .  S
C124        N128   1.350       .  A
N125        C140   1.344       .  A
N125       Co474   2.090   1_554  S
C126        C129   1.458       .  S
C126        H160   1.082       .  S
C126        N154   1.338       .  A
C129        N150   1.350       .  A
N130        N136   1.320       .  A
N131        C157   1.343       .  A
N131        N133   1.320       .  A
N131       Co474   2.090   1_554  S
N132        C146   1.338       .  A
N133        N161   1.324       .  A
N133       Co151   2.080       .  S
H134        C157   1.082       .  S
H135        C152   1.082       .  S
N137       Co151   2.075       .  S
N138        N150   1.326       .  A
N138        N154   1.320       .  A
N138       Co147   2.088       .  S
C139        C153   1.459       .  S
C139        N143   1.349       .  A
C140        C159   1.461       .  S
C140        H144   1.082       .  S
N141        C152   1.336       .  A
N141       Co151   2.073       .  S
C145        C157   1.461       .  S
C145        N161   1.349       .  A
Co147       N452   2.090       .  S
Co147       N458   2.090       .  S
Co147      Cl158   2.450       .  S
N148        C159   1.349       .  A
Co151      Cl485   2.452   1_554  S
Cl158      Co478   2.452       .  S
C162        C199   1.455       .  S
C162        N180   1.351       .  A
N163        N185   1.320       .  A
N163       N1488   1.327       .  A
N163       Co527   2.092       .  S
C164        C202   1.458       .  S
C164        H209   1.082       .  S
C164        N189   1.342       .  A
H165        C206   1.082       .  S
C166        C170   1.457       .  S
C166        H195   1.082       .  S
C166       N1498   1.338       .  A
Co167       N185   2.074       .  S
Co167       N175   2.079       .  S
Co167       N207   2.079       .  S
Co167       N183   2.082       .  S
Co167      Cl538   2.452   1_554  S
N168       C1514   1.342       .  A
N168        N175   1.319       .  A
N168       Co496   2.084   1_554  S
Co169       N172   2.084       .  S
Co169       N176   2.084       .  S
Co169       N495   2.084       .  S
Co169       N516   2.084       .  S
Co169      Cl211   2.448       .  S
C170        N208   1.349       .  A
N171        N178   1.320       .  A
N171       N1509   1.322       .  A
N171       Co204   2.077       .  S
N172        N190   1.320       .  A
N172       N1516   1.325       .  A
N173        C202   1.349       .  A
N173        N183   1.323       .  A
H174        C199   1.082       .  S
N175       N1504   1.323       .  A
N176        N194   1.321       .  A
N176        N181   1.326       .  A
C177        C205   1.458       .  S
C177        N181   1.349       .  A
N178       C1501   1.344       .  A
N178       Co200   2.091       .  S
C179        C182   1.456       .  S
C179        H213   1.082       .  S
C179        N207   1.337       .  A
N180       N1471   1.327       .  A
C182        N203   1.351       .  A
N183        N189   1.320       .  A
N184        C210   1.344       .  A
N184        N186   1.320       .  A
N184       Co200   2.091       .  S
N185       C1507   1.336       .  A
N186        N214   1.323       .  A
N186       Co204   2.082       .  S
H187        C210   1.082       .  S
H188        C205   1.082       .  S
N189       Co496   2.084   1_554  S
N190       C1474   1.338       .  A
N190       Co204   2.077       .  S
N191        N203   1.327       .  A
N191        N207   1.321       .  A
N191       Co527   2.092       .  S
C192        C206   1.459       .  S
C192        N196   1.348       .  A
C193        C212   1.462       .  S
C193        H197   1.082       .  S
C193       N1486   1.344       .  A
N194        C205   1.338       .  A
N194       Co204   2.080       .  S
N196       N1483   1.323       .  A
C198        C210   1.461       .  S
C198        N214   1.349       .  A
C199       N1493   1.336       .  A
Co200       N490   2.092       .  S
Co200       N518   2.092       .  S
Co200      Cl211   2.450       .  S
N201        C212   1.347       .  A
N201       N1479   1.322       .  A
Co204      Cl211   2.452       .  S
C206       N1476   1.342       .  A
N208       N1480   1.325       .  A
Cl211      Co494   2.452       .  S
C215        C252   1.456       .  S
C215        N233   1.351       .  A
N216        N233   1.327       .  A
N216        N238   1.321       .  A
N216       Co580   2.092       .  S
C217        C255   1.459       .  S
C217        H262   1.082       .  S
C217        N242   1.341       .  A
H218        C259   1.082       .  S
C219        C223   1.456       .  S
C219        H248   1.082       .  S
C219        N243   1.337       .  A
Co220       N238   2.077       .  S
Co220       N228   2.081       .  S
Co220       N914   2.076       .  S
Co220       N890   2.080       .  S
Co220      Cl591   2.452   1_554  S
N221        C259   1.342       .  A
N221        N228   1.320       .  A
N221       Co549   2.085   1_554  S
Co222       N225   2.085       .  S
Co222       N548   2.085       .  S
Co222      N1223   2.084       .  S
Co222       N883   2.084       .  S
Co222      Cl264   2.448       .  S
C223        N261   1.349       .  A
N224        N231   1.320       .  A
N224        N254   1.323       .  A
N224       Co257   2.079       .  S
N225        N243   1.320       .  A
N225        N261   1.326       .  A
N226        C255   1.349       .  A
N226        N236   1.324       .  A
H227        C252   1.082       .  S
N228        N249   1.323       .  A
N229        N247   1.320       .  A
N229        N234   1.325       .  A
N229       Co876   2.084   1_545  S
C230        C258   1.456       .  S
C230        N234   1.349       .  A
N231        C246   1.344       .  A
N231       Co253   2.093       .  S
C232        C235   1.456       .  S
C232        H266   1.082       .  S
C232        N260   1.337       .  A
C235        N256   1.351       .  A
N236        N242   1.320       .  A
N236       Co874   2.080   1_545  S
N237        C263   1.344       .  A
N237        N239   1.320       .  A
N237       Co907   2.093   1_545  S
N238        C252   1.337       .  A
N239        N267   1.323       .  A
N239       Co911   2.078   1_545  S
H240        C263   1.082       .  S
H241        C258   1.082       .  S
N242      Co1203   2.084   1_544  S
N243       Co257   2.075       .  S
N244        N256   1.327       .  A
N244        N260   1.320       .  A
N244      Co1234   2.091   1_545  S
C245        C259   1.460       .  S
C245        N249   1.349       .  A
C246        C265   1.462       .  S
C246        H250   1.082       .  S
N247        C258   1.337       .  A
N247       Co911   2.075   1_545  S
C251        C263   1.462       .  S
C251        N267   1.348       .  A
Co253       N543   2.092       .  S
Co253       N891   2.093       .  S
Co253      N1225   2.091       .  S
Co253      Cl264   2.450       .  S
N254        C265   1.348       .  A
Co257       N893   2.078       .  S
Co257       N901   2.075       .  S
Co257      Cl264   2.451       .  S
N260       Co874   2.076   1_545  S
Cl264      Co547   2.452       .  S
C268        C269   1.404       .  A
C268        C273   1.398       .  A
C268        H275   1.084       .  S
C269        C270   1.413       .  A
C270        C271   1.398       .  A
C270       Br277   1.921       .  S
C271        C272   1.403       .  A
C271        H276   1.084       .  S
C272        C273   1.412       .  A
C273       Br274   1.922       .  S
C278        C279   1.406       .  A
C278        C283   1.399       .  A
C278        H285   1.083       .  S
C279        C280   1.413       .  A
C280        C281   1.398       .  A
C280       Br287   1.922       .  S
C281        C282   1.405       .  A
C281        H286   1.084       .  S
C282        C283   1.410       .  A
C283       Br284   1.920       .  S
C288        C289   1.406       .  A
C288        C293   1.398       .  A
C288        H295   1.083       .  S
C289        C290   1.413       .  A
C290        C291   1.398       .  A
C290       Br297   1.922       .  S
C291        C292   1.405       .  A
C291        H296   1.084       .  S
C292        C293   1.411       .  A
C293       Br294   1.921       .  S
C298        C299   1.405       .  A
C298        C303   1.398       .  A
C298        H305   1.083       .  S
C299        C300   1.412       .  A
C300        C301   1.398       .  A
C300       Br307   1.922       .  S
C301        C302   1.404       .  A
C301        H306   1.084       .  S
C302        C303   1.410       .  A
C303       Br304   1.920       .  S
C308        C309   1.404       .  A
C308        C313   1.397       .  A
C308        H315   1.084       .  S
C309        C310   1.411       .  A
C310        C311   1.399       .  A
C310       Br317   1.921       .  S
C311        C312   1.406       .  A
C311        H316   1.084       .  S
C312        C313   1.412       .  A
C313       Br314   1.922       .  S
C318        C319   1.405       .  A
C318        C323   1.400       .  A
C318        H325   1.083       .  S
C319        C320   1.412       .  A
C320        C321   1.398       .  A
C320       Br327   1.921       .  S
C321        C322   1.404       .  A
C321        H326   1.084       .  S
C322        C323   1.409       .  A
C323       Br324   1.918       .  S
C328        C329   1.400       .  A
C328        C333   1.403       .  A
C328        C649   1.482       .  S
C329        C330   1.402       .  A
C329        H334   1.084       .  S
C330        C331   1.404       .  A
C330        C542   1.472       .  S
C331        C332   1.405       .  A
C331        H335   1.084       .  S
C332        C333   1.405       .  A
C332        C486   1.474       .  S
C333        H336   1.084       .  S
C337        C338   1.403       .  A
C337        C342   1.402       .  A
C337        C646   1.485       .  S
C338        C339   1.405       .  A
C338        H343   1.084       .  S
C339        C340   1.405       .  A
C339        C592   1.475       .  S
C340        C341   1.405       .  A
C340        H344   1.084       .  S
C341        C342   1.403       .  A
C341        C436   1.473       .  S
C342        H345   1.084       .  S
C346        C347   1.401       .  A
C346        C351   1.403       .  A
C346        C639   1.484       .  S
C347        C348   1.401       .  A
C347        H352   1.084       .  S
C348        C349   1.403       .  A
C348        C550   1.468       .  S
C349        C350   1.403       .  A
C349        H353   1.084       .  S
C350        C351   1.405       .  A
C350        C539   1.472       .  S
C351        H354   1.084       .  S
C355        C356   1.402       .  A
C355        C360   1.401       .  A
C355        C636   1.483       .  S
C356        C357   1.404       .  A
C356        H361   1.084       .  S
C357        C358   1.405       .  A
C357        C572   1.472       .  S
C358        C359   1.403       .  A
C358        H362   1.084       .  S
C359        C360   1.402       .  A
C359        C489   1.471       .  S
C360        H363   1.084       .  S
C364        C365   1.403       .  A
C364        C369   1.402       .  A
C364        C626   1.484       .  S
C365        C366   1.404       .  A
C365        H370   1.084       .  S
C366        C367   1.403       .  A
C366        C519   1.471       .  S
C367        C368   1.401       .  A
C367        H371   1.084       .  S
C368        C369   1.401       .  A
C368        C444   1.468       .  S
C369        H372   1.084       .  S
C373        C374   1.401       .  A
C373        C378   1.402       .  A
C373        C629   1.482       .  S
C374        C375   1.402       .  A
C374        H379   1.084       .  S
C375        C376   1.403       .  A
C375        C497   1.470       .  S
C376        C377   1.404       .  A
C376        H380   1.084       .  S
C377        C378   1.403       .  A
C377        C466   1.471       .  S
C378        H381   1.084       .  S
C382        C383   1.402       .  A
C382        C387   1.404       .  A
C382        C616   1.487       .  S
C383        C384   1.401       .  A
C383        H388   1.084       .  S
C384        C385   1.403       .  A
C384        C504   1.469       .  S
C385        C386   1.404       .  A
C385        H389   1.084       .  S
C386        C387   1.406       .  A
C386        C578   1.474       .  S
C387        H390   1.084       .  S
C391        C392   1.402       .  A
C391        C396   1.403       .  A
C391        C619   1.485       .  S
C392        C393   1.402       .  A
C392        H397   1.084       .  S
C393        C394   1.403       .  A
C393        C562   1.471       .  S
C394        C395   1.404       .  A
C394        H398   1.084       .  S
C395        C396   1.403       .  A
C395        C529   1.471       .  S
C396        H399   1.084       .  S
C400        C401   1.402       .  A
C400        C405   1.404       .  A
C400        C606   1.487       .  S
C401        C402   1.402       .  A
C401        H406   1.084       .  S
C402        C403   1.403       .  A
C402        C509   1.472       .  S
C403        C404   1.405       .  A
C403        H407   1.084       .  S
C404        C405   1.406       .  A
C404        C472   1.475       .  S
C405        H408   1.084       .  S
C409        C410   1.404       .  A
C409        C414   1.401       .  A
C409        C609   1.485       .  S
C410        C411   1.405       .  A
C410        H415   1.084       .  S
C411        C412   1.405       .  A
C411        C525   1.474       .  S
C412        C413   1.404       .  A
C412        H416   1.084       .  S
C413        C414   1.402       .  A
C413        C456   1.472       .  S
C414        H417   1.084       .  S
C418        C419   1.400       .  A
C418        C423   1.403       .  A
C418        C599   1.481       .  S
C419        C420   1.401       .  A
C419        H424   1.084       .  S
C420        C421   1.403       .  A
C420        C557   1.468       .  S
C421        C422   1.403       .  A
C421        H425   1.084       .  S
C422        C423   1.404       .  A
C422        C476   1.471       .  S
C423        H426   1.084       .  S
C427        C428   1.404       .  A
C427        C432   1.400       .  A
C427        C596   1.482       .  S
C428        C429   1.405       .  A
C428        H433   1.084       .  S
C429        C430   1.404       .  A
C429        C582   1.472       .  S
C430        C431   1.401       .  A
C430        H434   1.084       .  S
C431        C432   1.400       .  A
C431        C451   1.467       .  S
C432        H435   1.084       .  S
C436        C473   1.457       .  S
C436        N454   1.351       .  A
N437        N454   1.327       .  A
N437        N459   1.321       .  A
N437       Co474   2.091       .  S
C438        C476   1.460       .  S
C438        H483   1.082       .  S
C438        N463   1.343       .  A
H439        C480   1.082       .  S
C440        C444   1.455       .  S
C440        H469   1.082       .  S
C440        N464   1.337       .  A
Co441       N459   2.079       .  S
Co441       N449   2.081       .  S
Co441       N481   2.079       .  S
Co441       N457   2.079       .  S
Co441      Cl485   2.453       .  S
N442        C480   1.343       .  A
N442        N449   1.320       .  A
N442       Co443   2.087       .  S
Co443       N463   2.088       .  S
Co443      Cl485   2.450       .  S
C444        N482   1.350       .  A
N445        N452   1.320       .  A
N445        N475   1.323       .  A
N445       Co478   2.080       .  S
N446        N464   1.321       .  A
N446        N482   1.326       .  A
N447        C476   1.348       .  A
N447        N457   1.323       .  A
H448        C473   1.082       .  S
N449        N470   1.323       .  A
N450        N468   1.320       .  A
N450        N455   1.326       .  A
C451        C479   1.454       .  S
C451        N455   1.350       .  A
N452        C467   1.344       .  A
C453        C456   1.458       .  S
C453        H487   1.082       .  S
C453        N481   1.338       .  A
C456        N477   1.350       .  A
N457        N463   1.320       .  A
N458        C484   1.343       .  A
N458        N460   1.320       .  A
N459        C473   1.338       .  A
N460        N488   1.324       .  A
N460       Co478   2.080       .  S
H461        C484   1.082       .  S
H462        C479   1.082       .  S
N464       Co478   2.075       .  S
N465        N477   1.326       .  A
N465        N481   1.320       .  A
N465       Co474   2.088       .  S
C466        C480   1.459       .  S
C466        N470   1.349       .  A
C467        C486   1.461       .  S
C467        H471   1.082       .  S
N468        C479   1.336       .  A
N468       Co478   2.073       .  S
C472        C484   1.461       .  S
C472        N488   1.349       .  A
Co474      Cl485   2.450       .  S
N475        C486   1.349       .  A
C489        C526   1.455       .  S
C489        N507   1.351       .  A
N490       N1815   1.327       .  A
N490        N512   1.320       .  A
C491        C529   1.458       .  S
C491        H536   1.082       .  S
C491        N516   1.342       .  A
H492        C533   1.082       .  S
C493        C497   1.457       .  S
C493        H522   1.082       .  S
C493       N1825   1.338       .  A
Co494       N512   2.074       .  S
Co494       N502   2.079       .  S
Co494       N534   2.079       .  S
Co494       N510   2.082       .  S
N495       C1841   1.342       .  A
N495        N502   1.319       .  A
Co496       N499   2.084       .  S
Co496       N503   2.084       .  S
Co496      Cl538   2.448       .  S
C497        N535   1.349       .  A
N498        N505   1.320       .  A
N498       N1836   1.322       .  A
N498       Co531   2.077       .  S
N499        N517   1.320       .  A
N499       N1843   1.325       .  A
N500        C529   1.349       .  A
N500        N510   1.323       .  A
H501        C526   1.082       .  S
N502       N1831   1.323       .  A
N503        N521   1.321       .  A
N503        N508   1.326       .  A
C504        C532   1.458       .  S
C504        N508   1.349       .  A
N505       C1828   1.344       .  A
N505       Co527   2.091   1_556  S
C506        C509   1.456       .  S
C506        H540   1.082       .  S
C506        N534   1.337       .  A
N507       N1798   1.327       .  A
C509        N530   1.351       .  A
N510        N516   1.320       .  A
N511        C537   1.344       .  A
N511        N513   1.320       .  A
N511       Co527   2.091   1_556  S
N512       C1834   1.336       .  A
N513        N541   1.323       .  A
N513       Co531   2.082       .  S
H514        C537   1.082       .  S
H515        C532   1.082       .  S
N517       C1801   1.338       .  A
N517       Co531   2.077       .  S
N518        N530   1.327       .  A
N518        N534   1.321       .  A
C519        C533   1.459       .  S
C519        N523   1.348       .  A
C520        C539   1.462       .  S
C520        H524   1.082       .  S
C520       N1813   1.344       .  A
N521        C532   1.338       .  A
N521       Co531   2.080       .  S
N523       N1810   1.323       .  A
C525        C537   1.461       .  S
C525        N541   1.349       .  A
C526       N1820   1.336       .  A
Co527      Cl538   2.450   1_554  S
N528        C539   1.347       .  A
N528       N1806   1.322       .  A
Co531      Cl538   2.452       .  S
C533       N1803   1.342       .  A
N535       N1807   1.325       .  A
C542        C579   1.456       .  S
C542        N560   1.351       .  A
N543        N560   1.327       .  A
N543        N565   1.321       .  A
C544        C582   1.459       .  S
C544        H589   1.082       .  S
C544        N569   1.341       .  A
H545        C586   1.082       .  S
C546        C550   1.456       .  S
C546        H575   1.082       .  S
C546        N570   1.337       .  A
Co547       N565   2.077       .  S
Co547       N555   2.081       .  S
Co547      N1241   2.076       .  S
Co547      N1217   2.080       .  S
N548        C586   1.342       .  A
N548        N555   1.320       .  A
Co549       N552   2.085       .  S
Co549       N896   2.084   1_556  S
Co549      N1210   2.084       .  S
Co549      Cl591   2.448       .  S
C550        N588   1.349       .  A
N551        N558   1.320       .  A
N551        N581   1.323       .  A
N551       Co584   2.079       .  S
N552        N570   1.320       .  A
N552        N588   1.326       .  A
N553        C582   1.349       .  A
N553        N563   1.324       .  A
H554        C579   1.082       .  S
N555        N576   1.323       .  A
N556        N574   1.320       .  A
N556        N561   1.325       .  A
N556      Co1203   2.084   1_545  S
C557        C585   1.456       .  S
C557        N561   1.349       .  A
N558        C573   1.344       .  A
N558       Co580   2.093   1_556  S
C559        C562   1.456       .  S
C559        H593   1.082       .  S
C559        N587   1.337       .  A
C562        N583   1.351       .  A
N563        N569   1.320       .  A
N563      Co1201   2.080   1_545  S
N564        C590   1.344       .  A
N564        N566   1.320       .  A
N564      Co1234   2.093   1_546  S
N565        C579   1.337       .  A
N566        N594   1.323       .  A
N566      Co1238   2.078   1_545  S
H567        C590   1.082       .  S
H568        C585   1.082       .  S
N569       Co876   2.084   1_545  S
N570       Co584   2.075       .  S
N571        N583   1.327       .  A
N571        N587   1.320       .  A
N571       Co907   2.091   1_545  S
C572        C586   1.460       .  S
C572        N576   1.349       .  A
C573        C592   1.462       .  S
C573        H577   1.082       .  S
N574        C585   1.337       .  A
N574      Co1238   2.075   1_545  S
C578        C590   1.462       .  S
C578        N594   1.348       .  A
Co580      N1218   2.093   1_554  S
Co580       N898   2.091       .  S
Co580      Cl591   2.450   1_554  S
N581        C592   1.348       .  A
Co584      N1220   2.078       .  S
Co584      N1228   2.075       .  S
Co584      Cl591   2.451       .  S
N587      Co1201   2.076   1_545  S
C595        C596   1.404       .  A
C595        C600   1.398       .  A
C595        H602   1.084       .  S
C596        C597   1.413       .  A
C597        C598   1.398       .  A
C597       Br604   1.921       .  S
C598        C599   1.403       .  A
C598        H603   1.084       .  S
C599        C600   1.412       .  A
C600       Br601   1.922       .  S
C605        C606   1.406       .  A
C605        C610   1.399       .  A
C605        H612   1.083       .  S
C606        C607   1.413       .  A
C607        C608   1.398       .  A
C607       Br614   1.922       .  S
C608        C609   1.405       .  A
C608        H613   1.084       .  S
C609        C610   1.410       .  A
C610       Br611   1.920       .  S
C615        C616   1.406       .  A
C615        C620   1.398       .  A
C615        H622   1.083       .  S
C616        C617   1.413       .  A
C617        C618   1.398       .  A
C617       Br624   1.922       .  S
C618        C619   1.405       .  A
C618        H623   1.084       .  S
C619        C620   1.411       .  A
C620       Br621   1.921       .  S
C625        C626   1.405       .  A
C625        C630   1.398       .  A
C625        H632   1.083       .  S
C626        C627   1.412       .  A
C627        C628   1.398       .  A
C627       Br634   1.922       .  S
C628        C629   1.404       .  A
C628        H633   1.084       .  S
C629        C630   1.410       .  A
C630       Br631   1.920       .  S
C635        C636   1.404       .  A
C635        C640   1.397       .  A
C635        H642   1.084       .  S
C636        C637   1.411       .  A
C637        C638   1.399       .  A
C637       Br644   1.921       .  S
C638        C639   1.406       .  A
C638        H643   1.084       .  S
C639        C640   1.412       .  A
C640       Br641   1.922       .  S
C645        C646   1.405       .  A
C645        C650   1.400       .  A
C645        H652   1.083       .  S
C646        C647   1.412       .  A
C647        C648   1.398       .  A
C647       Br654   1.921       .  S
C648        C649   1.404       .  A
C648        H653   1.084       .  S
C649        C650   1.409       .  A
C650       Br651   1.918       .  S
C655        C656   1.400       .  A
C655        C660   1.403       .  A
C655        C976   1.482       .  S
C656        C657   1.402       .  A
C656        H661   1.084       .  S
C657        C658   1.404       .  A
C657        C869   1.472       .  S
C658        C659   1.405       .  A
C658        H662   1.084       .  S
C659        C660   1.405       .  A
C659        C813   1.474       .  S
C660        H663   1.084       .  S
C664        C665   1.403       .  A
C664        C669   1.402       .  A
C664        C973   1.485       .  S
C665        C666   1.405       .  A
C665        H670   1.084       .  S
C666        C667   1.405       .  A
C666        C919   1.475       .  S
C667        C668   1.405       .  A
C667        H671   1.084       .  S
C668        C669   1.403       .  A
C668        C763   1.473       .  S
C669        H672   1.084       .  S
C673        C674   1.401       .  A
C673        C678   1.403       .  A
C673        C966   1.484       .  S
C674        C675   1.401       .  A
C674        H679   1.084       .  S
C675        C676   1.403       .  A
C675        C877   1.468       .  S
C676        C677   1.403       .  A
C676        H680   1.084       .  S
C677        C678   1.405       .  A
C677        C866   1.472       .  S
C678        H681   1.084       .  S
C682        C683   1.402       .  A
C682        C687   1.401       .  A
C682        C963   1.483       .  S
C683        C684   1.404       .  A
C683        H688   1.084       .  S
C684        C685   1.405       .  A
C684        C899   1.472       .  S
C685        C686   1.403       .  A
C685        H689   1.084       .  S
C686        C687   1.402       .  A
C686        C816   1.471       .  S
C687        H690   1.084       .  S
C691        C692   1.403       .  A
C691        C696   1.402       .  A
C691        C953   1.484       .  S
C692        C693   1.404       .  A
C692        H697   1.084       .  S
C693        C694   1.403       .  A
C693        C846   1.471       .  S
C694        C695   1.401       .  A
C694        H698   1.084       .  S
C695        C696   1.401       .  A
C695        C771   1.468       .  S
C696        H699   1.084       .  S
C700        C701   1.401       .  A
C700        C705   1.402       .  A
C700        C956   1.482       .  S
C701        C702   1.402       .  A
C701        H706   1.084       .  S
C702        C703   1.403       .  A
C702        C824   1.470       .  S
C703        C704   1.404       .  A
C703        H707   1.084       .  S
C704        C705   1.403       .  A
C704        C793   1.471       .  S
C705        H708   1.084       .  S
C709        C710   1.402       .  A
C709        C714   1.404       .  A
C709        C943   1.487       .  S
C710        C711   1.401       .  A
C710        H715   1.084       .  S
C711        C712   1.403       .  A
C711        C831   1.469       .  S
C712        C713   1.404       .  A
C712        H716   1.084       .  S
C713        C714   1.406       .  A
C713        C905   1.474       .  S
C714        H717   1.084       .  S
C718        C719   1.402       .  A
C718        C723   1.403       .  A
C718        C946   1.485       .  S
C719        C720   1.402       .  A
C719        H724   1.084       .  S
C720        C721   1.403       .  A
C720        C889   1.471       .  S
C721        C722   1.404       .  A
C721        H725   1.084       .  S
C722        C723   1.403       .  A
C722        C856   1.471       .  S
C723        H726   1.084       .  S
C727        C728   1.402       .  A
C727        C732   1.404       .  A
C727        C933   1.487       .  S
C728        C729   1.402       .  A
C728        H733   1.084       .  S
C729        C730   1.403       .  A
C729        C836   1.472       .  S
C730        C731   1.405       .  A
C730        H734   1.084       .  S
C731        C732   1.406       .  A
C731        C799   1.475       .  S
C732        H735   1.084       .  S
C736        C737   1.404       .  A
C736        C741   1.401       .  A
C736        C936   1.485       .  S
C737        C738   1.405       .  A
C737        H742   1.084       .  S
C738        C739   1.405       .  A
C738        C852   1.474       .  S
C739        C740   1.404       .  A
C739        H743   1.084       .  S
C740        C741   1.402       .  A
C740        C783   1.472       .  S
C741        H744   1.084       .  S
C745        C746   1.400       .  A
C745        C750   1.403       .  A
C745        C926   1.481       .  S
C746        C747   1.401       .  A
C746        H751   1.084       .  S
C747        C748   1.403       .  A
C747        C884   1.468       .  S
C748        C749   1.403       .  A
C748        H752   1.084       .  S
C749        C750   1.404       .  A
C749        C803   1.471       .  S
C750        H753   1.084       .  S
C754        C755   1.404       .  A
C754        C759   1.400       .  A
C754        C923   1.482       .  S
C755        C756   1.405       .  A
C755        H760   1.084       .  S
C756        C757   1.404       .  A
C756        C909   1.472       .  S
C757        C758   1.401       .  A
C757        H761   1.084       .  S
C758        C759   1.400       .  A
C758        C778   1.467       .  S
C759        H762   1.084       .  S
C763        C800   1.457       .  S
C763        N781   1.351       .  A
N764        N781   1.327       .  A
N764        N786   1.321       .  A
N764       Co801   2.091       .  S
C765        C803   1.460       .  S
C765        H810   1.082       .  S
C765        N790   1.343       .  A
H766        C807   1.082       .  S
C767        C771   1.455       .  S
C767        H796   1.082       .  S
C767        N791   1.337       .  A
Co768       N786   2.079       .  S
Co768       N776   2.081       .  S
Co768       N808   2.079       .  S
Co768       N784   2.079       .  S
Co768      Cl812   2.453       .  S
N769        C807   1.343       .  A
N769        N776   1.320       .  A
N769       Co770   2.087       .  S
Co770      N1100   2.088       .  S
Co770       N790   2.088       .  S
Co770      N1104   2.087       .  S
Co770      Cl812   2.450       .  S
C771        N809   1.350       .  A
N772        N779   1.320       .  A
N772        N802   1.323       .  A
N772       Co805   2.080       .  S
N773        N791   1.321       .  A
N773        N809   1.326       .  A
N773      Co1097   2.088   1_554  S
N774        C803   1.348       .  A
N774        N784   1.323       .  A
H775        C800   1.082       .  S
N776        N797   1.323       .  A
N777        N795   1.320       .  A
N777        N782   1.326       .  A
N777      Co1097   2.087   1_554  S
C778        C806   1.454       .  S
C778        N782   1.350       .  A
N779        C794   1.344       .  A
N779      Co1128   2.090   1_554  S
C780        C783   1.458       .  S
C780        H814   1.082       .  S
C780        N808   1.338       .  A
C783        N804   1.350       .  A
N784        N790   1.320       .  A
N785        C811   1.343       .  A
N785        N787   1.320       .  A
N785      Co1128   2.090   1_554  S
N786        C800   1.338       .  A
N787        N815   1.324       .  A
N787       Co805   2.080       .  S
H788        C811   1.082       .  S
H789        C806   1.082       .  S
N791       Co805   2.075       .  S
N792        N804   1.326       .  A
N792        N808   1.320       .  A
N792       Co801   2.088       .  S
C793        C807   1.459       .  S
C793        N797   1.349       .  A
C794        C813   1.461       .  S
C794        H798   1.082       .  S
N795        C806   1.336       .  A
N795       Co805   2.073       .  S
C799        C811   1.461       .  S
C799        N815   1.349       .  A
Co801      N1106   2.090       .  S
Co801      N1112   2.090       .  S
Co801      Cl812   2.450       .  S
N802        C813   1.349       .  A
Co805     Cl1139   2.452   1_554  S
Cl812     Co1132   2.452       .  S
C816        C853   1.455       .  S
C816        N834   1.351       .  A
N817       N2142   1.327       .  A
N817        N839   1.320       .  A
N817      Co1181   2.092       .  S
C818        C856   1.458       .  S
C818        H863   1.082       .  S
C818        N843   1.342       .  A
H819        C860   1.082       .  S
C820        C824   1.457       .  S
C820        H849   1.082       .  S
C820       N2152   1.338       .  A
Co821       N839   2.074       .  S
Co821       N829   2.079       .  S
Co821       N861   2.079       .  S
Co821       N837   2.082       .  S
Co821     Cl1192   2.452   1_554  S
N822       C2168   1.342       .  A
N822        N829   1.319       .  A
N822      Co1150   2.084   1_554  S
Co823      N1149   2.084       .  S
Co823       N826   2.084       .  S
Co823      N1170   2.084       .  S
Co823       N830   2.084       .  S
Co823      Cl865   2.448       .  S
C824        N862   1.349       .  A
N825        N832   1.320       .  A
N825       N2163   1.322       .  A
N825       Co858   2.077       .  S
N826        N844   1.320       .  A
N826       N2170   1.325       .  A
N827        C856   1.349       .  A
N827        N837   1.323       .  A
H828        C853   1.082       .  S
N829       N2158   1.323       .  A
N830        N848   1.321       .  A
N830        N835   1.326       .  A
C831        C859   1.458       .  S
C831        N835   1.349       .  A
N832       C2155   1.344       .  A
N832       Co854   2.091       .  S
C833        C836   1.456       .  S
C833        H867   1.082       .  S
C833        N861   1.337       .  A
N834       N2125   1.327       .  A
C836        N857   1.351       .  A
N837        N843   1.320       .  A
N838        C864   1.344       .  A
N838        N840   1.320       .  A
N838       Co854   2.091       .  S
N839       C2161   1.336       .  A
N840        N868   1.323       .  A
N840       Co858   2.082       .  S
H841        C864   1.082       .  S
H842        C859   1.082       .  S
N843      Co1150   2.084   1_554  S
N844       C2128   1.338       .  A
N844       Co858   2.077       .  S
N845        N857   1.327       .  A
N845        N861   1.321       .  A
N845      Co1181   2.092       .  S
C846        C860   1.459       .  S
C846        N850   1.348       .  A
C847        C866   1.462       .  S
C847        H851   1.082       .  S
C847       N2140   1.344       .  A
N848        C859   1.338       .  A
N848       Co858   2.080       .  S
N850       N2137   1.323       .  A
C852        C864   1.461       .  S
C852        N868   1.349       .  A
C853       N2147   1.336       .  A
Co854      N1144   2.092       .  S
Co854      N1172   2.092       .  S
Co854      Cl865   2.450       .  S
N855        C866   1.347       .  A
N855       N2133   1.322       .  A
Co858      Cl865   2.452       .  S
C860       N2130   1.342       .  A
N862       N2134   1.325       .  A
Cl865     Co1148   2.452       .  S
C869        C906   1.456       .  S
C869        N887   1.351       .  A
N870        N887   1.327       .  A
N870        N892   1.321       .  A
N870      Co1234   2.092       .  S
C871        C909   1.459       .  S
C871        H916   1.082       .  S
C871        N896   1.341       .  A
H872        C913   1.082       .  S
C873        C877   1.456       .  S
C873        H902   1.082       .  S
C873        N897   1.337       .  A
Co874       N892   2.077       .  S
Co874       N882   2.081       .  S
Co874     Cl1245   2.452   1_554  S
N875        C913   1.342       .  A
N875        N882   1.320       .  A
N875      Co1203   2.085   1_554  S
Co876      N1202   2.085       .  S
Co876       N879   2.085       .  S
Co876      Cl918   2.448       .  S
C877        N915   1.349       .  A
N878        N885   1.320       .  A
N878        N908   1.323       .  A
N878       Co911   2.079       .  S
N879        N897   1.320       .  A
N879        N915   1.326       .  A
N880        C909   1.349       .  A
N880        N890   1.324       .  A
H881        C906   1.082       .  S
N882        N903   1.323       .  A
N883        N901   1.320       .  A
N883        N888   1.325       .  A
C884        C912   1.456       .  S
C884        N888   1.349       .  A
N885        C900   1.344       .  A
N885       Co907   2.093       .  S
C886        C889   1.456       .  S
C886        H920   1.082       .  S
C886        N914   1.337       .  A
C889        N910   1.351       .  A
N890        N896   1.320       .  A
N891        C917   1.344       .  A
N891        N893   1.320       .  A
N892        C906   1.337       .  A
N893        N921   1.323       .  A
H894        C917   1.082       .  S
H895        C912   1.082       .  S
N897       Co911   2.075       .  S
N898        N910   1.327       .  A
N898        N914   1.320       .  A
C899        C913   1.460       .  S
C899        N903   1.349       .  A
C900        C919   1.462       .  S
C900        H904   1.082       .  S
N901        C912   1.337       .  A
C905        C917   1.462       .  S
C905        N921   1.348       .  A
Co907      N1197   2.092       .  S
Co907      Cl918   2.450       .  S
N908        C919   1.348       .  A
Co911      Cl918   2.451       .  S
Cl918     Co1201   2.452       .  S
C922        C923   1.404       .  A
C922        C927   1.398       .  A
C922        H929   1.084       .  S
C923        C924   1.413       .  A
C924        C925   1.398       .  A
C924       Br931   1.921       .  S
C925        C926   1.403       .  A
C925        H930   1.084       .  S
C926        C927   1.412       .  A
C927       Br928   1.922       .  S
C932        C933   1.406       .  A
C932        C937   1.399       .  A
C932        H939   1.083       .  S
C933        C934   1.413       .  A
C934        C935   1.398       .  A
C934       Br941   1.922       .  S
C935        C936   1.405       .  A
C935        H940   1.084       .  S
C936        C937   1.410       .  A
C937       Br938   1.920       .  S
C942        C943   1.406       .  A
C942        C947   1.398       .  A
C942        H949   1.083       .  S
C943        C944   1.413       .  A
C944        C945   1.398       .  A
C944       Br951   1.922       .  S
C945        C946   1.405       .  A
C945        H950   1.084       .  S
C946        C947   1.411       .  A
C947       Br948   1.921       .  S
C952        C953   1.405       .  A
C952        C957   1.398       .  A
C952        H959   1.083       .  S
C953        C954   1.412       .  A
C954        C955   1.398       .  A
C954       Br961   1.922       .  S
C955        C956   1.404       .  A
C955        H960   1.084       .  S
C956        C957   1.410       .  A
C957       Br958   1.920       .  S
C962        C963   1.404       .  A
C962        C967   1.397       .  A
C962        H969   1.084       .  S
C963        C964   1.411       .  A
C964        C965   1.399       .  A
C964       Br971   1.921       .  S
C965        C966   1.406       .  A
C965        H970   1.084       .  S
C966        C967   1.412       .  A
C967       Br968   1.922       .  S
C972        C973   1.405       .  A
C972        C977   1.400       .  A
C972        H979   1.083       .  S
C973        C974   1.412       .  A
C974        C975   1.398       .  A
C974       Br981   1.921       .  S
C975        C976   1.404       .  A
C975        H980   1.084       .  S
C976        C977   1.409       .  A
C977       Br978   1.918       .  S
C982        C983   1.400       .  A
C982        C987   1.403       .  A
C982       C1303   1.482       .  S
C983        C984   1.402       .  A
C983        H988   1.084       .  S
C984        C985   1.404       .  A
C984       C1196   1.472       .  S
C985        C986   1.405       .  A
C985        H989   1.084       .  S
C986        C987   1.405       .  A
C986       C1140   1.474       .  S
C987        H990   1.084       .  S
C991        C992   1.403       .  A
C991        C996   1.402       .  A
C991       C1300   1.485       .  S
C992        C993   1.405       .  A
C992        H997   1.084       .  S
C993        C994   1.405       .  A
C993       C1246   1.475       .  S
C994        C995   1.405       .  A
C994        H998   1.084       .  S
C995        C996   1.403       .  A
C995       C1090   1.473       .  S
C996        H999   1.084       .  S
C1000      C1001   1.401       .  A
C1000      C1005   1.403       .  A
C1000      C1293   1.484       .  S
C1001      C1002   1.401       .  A
C1001      H1006   1.084       .  S
C1002      C1003   1.403       .  A
C1002      C1204   1.468       .  S
C1003      C1004   1.403       .  A
C1003      H1007   1.084       .  S
C1004      C1005   1.405       .  A
C1004      C1193   1.472       .  S
C1005      H1008   1.084       .  S
C1009      C1010   1.402       .  A
C1009      C1014   1.401       .  A
C1009      C1290   1.483       .  S
C1010      C1011   1.404       .  A
C1010      H1015   1.084       .  S
C1011      C1012   1.405       .  A
C1011      C1226   1.472       .  S
C1012      C1013   1.403       .  A
C1012      H1016   1.084       .  S
C1013      C1014   1.402       .  A
C1013      C1143   1.471       .  S
C1014      H1017   1.084       .  S
C1018      C1019   1.403       .  A
C1018      C1023   1.402       .  A
C1018      C1280   1.484       .  S
C1019      C1020   1.404       .  A
C1019      H1024   1.084       .  S
C1020      C1021   1.403       .  A
C1020      C1173   1.471       .  S
C1021      C1022   1.401       .  A
C1021      H1025   1.084       .  S
C1022      C1023   1.401       .  A
C1022      C1098   1.468       .  S
C1023      H1026   1.084       .  S
C1027      C1028   1.401       .  A
C1027      C1032   1.402       .  A
C1027      C1283   1.482       .  S
C1028      C1029   1.402       .  A
C1028      H1033   1.084       .  S
C1029      C1030   1.403       .  A
C1029      C1151   1.470       .  S
C1030      C1031   1.404       .  A
C1030      H1034   1.084       .  S
C1031      C1032   1.403       .  A
C1031      C1120   1.471       .  S
C1032      H1035   1.084       .  S
C1036      C1037   1.402       .  A
C1036      C1041   1.404       .  A
C1036      C1270   1.487       .  S
C1037      C1038   1.401       .  A
C1037      H1042   1.084       .  S
C1038      C1039   1.403       .  A
C1038      C1158   1.469       .  S
C1039      C1040   1.404       .  A
C1039      H1043   1.084       .  S
C1040      C1041   1.406       .  A
C1040      C1232   1.474       .  S
C1041      H1044   1.084       .  S
C1045      C1046   1.402       .  A
C1045      C1050   1.403       .  A
C1045      C1273   1.485       .  S
C1046      C1047   1.402       .  A
C1046      H1051   1.084       .  S
C1047      C1048   1.403       .  A
C1047      C1216   1.471       .  S
C1048      C1049   1.404       .  A
C1048      H1052   1.084       .  S
C1049      C1050   1.403       .  A
C1049      C1183   1.471       .  S
C1050      H1053   1.084       .  S
C1054      C1055   1.402       .  A
C1054      C1059   1.404       .  A
C1054      C1260   1.487       .  S
C1055      C1056   1.402       .  A
C1055      H1060   1.084       .  S
C1056      C1057   1.403       .  A
C1056      C1163   1.472       .  S
C1057      C1058   1.405       .  A
C1057      H1061   1.084       .  S
C1058      C1059   1.406       .  A
C1058      C1126   1.475       .  S
C1059      H1062   1.084       .  S
C1063      C1064   1.404       .  A
C1063      C1068   1.401       .  A
C1063      C1263   1.485       .  S
C1064      C1065   1.405       .  A
C1064      H1069   1.084       .  S
C1065      C1066   1.405       .  A
C1065      C1179   1.474       .  S
C1066      C1067   1.404       .  A
C1066      H1070   1.084       .  S
C1067      C1068   1.402       .  A
C1067      C1110   1.472       .  S
C1068      H1071   1.084       .  S
C1072      C1073   1.400       .  A
C1072      C1077   1.403       .  A
C1072      C1253   1.481       .  S
C1073      C1074   1.401       .  A
C1073      H1078   1.084       .  S
C1074      C1075   1.403       .  A
C1074      C1211   1.468       .  S
C1075      C1076   1.403       .  A
C1075      H1079   1.084       .  S
C1076      C1077   1.404       .  A
C1076      C1130   1.471       .  S
C1077      H1080   1.084       .  S
C1081      C1082   1.404       .  A
C1081      C1086   1.400       .  A
C1081      C1250   1.482       .  S
C1082      C1083   1.405       .  A
C1082      H1087   1.084       .  S
C1083      C1084   1.404       .  A
C1083      C1236   1.472       .  S
C1084      C1085   1.401       .  A
C1084      H1088   1.084       .  S
C1085      C1086   1.400       .  A
C1085      C1105   1.467       .  S
C1086      H1089   1.084       .  S
C1090      C1127   1.457       .  S
C1090      N1108   1.351       .  A
N1091      N1108   1.327       .  A
N1091      N1113   1.321       .  A
N1091     Co1128   2.091       .  S
C1092      C1130   1.460       .  S
C1092      H1137   1.082       .  S
C1092      N1117   1.343       .  A
H1093      C1134   1.082       .  S
C1094      C1098   1.455       .  S
C1094      H1123   1.082       .  S
C1094      N1118   1.337       .  A
Co1095     N1113   2.079       .  S
Co1095     N1103   2.081       .  S
Co1095     N1135   2.079       .  S
Co1095     N1111   2.079       .  S
Co1095    Cl1139   2.453       .  S
N1096      C1134   1.343       .  A
N1096      N1103   1.320       .  A
N1096     Co1097   2.087       .  S
Co1097     N1117   2.088       .  S
Co1097    Cl1139   2.450       .  S
C1098      N1136   1.350       .  A
N1099      N1106   1.320       .  A
N1099      N1129   1.323       .  A
N1099     Co1132   2.080       .  S
N1100      N1118   1.321       .  A
N1100      N1136   1.326       .  A
N1101      C1130   1.348       .  A
N1101      N1111   1.323       .  A
H1102      C1127   1.082       .  S
N1103      N1124   1.323       .  A
N1104      N1122   1.320       .  A
N1104      N1109   1.326       .  A
C1105      C1133   1.454       .  S
C1105      N1109   1.350       .  A
N1106      C1121   1.344       .  A
C1107      C1110   1.458       .  S
C1107      H1141   1.082       .  S
C1107      N1135   1.338       .  A
C1110      N1131   1.350       .  A
N1111      N1117   1.320       .  A
N1112      C1138   1.343       .  A
N1112      N1114   1.320       .  A
N1113      C1127   1.338       .  A
N1114      N1142   1.324       .  A
N1114     Co1132   2.080       .  S
H1115      C1138   1.082       .  S
H1116      C1133   1.082       .  S
N1118     Co1132   2.075       .  S
N1119      N1131   1.326       .  A
N1119      N1135   1.320       .  A
N1119     Co1128   2.088       .  S
C1120      C1134   1.459       .  S
C1120      N1124   1.349       .  A
C1121      C1140   1.461       .  S
C1121      H1125   1.082       .  S
N1122      C1133   1.336       .  A
N1122     Co1132   2.073       .  S
C1126      C1138   1.461       .  S
C1126      N1142   1.349       .  A
Co1128    Cl1139   2.450       .  S
N1129      C1140   1.349       .  A
C1143      C1180   1.455       .  S
C1143      N1161   1.351       .  A
N1144      N2469   1.327       .  A
N1144      N1166   1.320       .  A
C1145      C1183   1.458       .  S
C1145      H1190   1.082       .  S
C1145      N1170   1.342       .  A
H1146      C1187   1.082       .  S
C1147      C1151   1.457       .  S
C1147      H1176   1.082       .  S
C1147      N2479   1.338       .  A
Co1148     N1166   2.074       .  S
Co1148     N1156   2.079       .  S
Co1148     N1188   2.079       .  S
Co1148     N1164   2.082       .  S
N1149      C2495   1.342       .  A
N1149      N1156   1.319       .  A
Co1150     N1153   2.084       .  S
Co1150     N1157   2.084       .  S
Co1150    Cl1192   2.448       .  S
C1151      N1189   1.349       .  A
N1152      N1159   1.320       .  A
N1152      N2490   1.322       .  A
N1152     Co1185   2.077       .  S
N1153      N1171   1.320       .  A
N1153      N2497   1.325       .  A
N1154      C1183   1.349       .  A
N1154      N1164   1.323       .  A
H1155      C1180   1.082       .  S
N1156      N2485   1.323       .  A
N1157      N1175   1.321       .  A
N1157      N1162   1.326       .  A
C1158      C1186   1.458       .  S
C1158      N1162   1.349       .  A
N1159      C2482   1.344       .  A
N1159     Co1181   2.091   1_556  S
C1160      C1163   1.456       .  S
C1160      H1194   1.082       .  S
C1160      N1188   1.337       .  A
N1161      N2452   1.327       .  A
C1163      N1184   1.351       .  A
N1164      N1170   1.320       .  A
N1165      C1191   1.344       .  A
N1165      N1167   1.320       .  A
N1165     Co1181   2.091   1_556  S
N1166      C2488   1.336       .  A
N1167      N1195   1.323       .  A
N1167     Co1185   2.082       .  S
H1168      C1191   1.082       .  S
H1169      C1186   1.082       .  S
N1171      C2455   1.338       .  A
N1171     Co1185   2.077       .  S
N1172      N1184   1.327       .  A
N1172      N1188   1.321       .  A
C1173      C1187   1.459       .  S
C1173      N1177   1.348       .  A
C1174      C1193   1.462       .  S
C1174      H1178   1.082       .  S
C1174      N2467   1.344       .  A
N1175      C1186   1.338       .  A
N1175     Co1185   2.080       .  S
N1177      N2464   1.323       .  A
C1179      C1191   1.461       .  S
C1179      N1195   1.349       .  A
C1180      N2474   1.336       .  A
Co1181    Cl1192   2.450   1_554  S
N1182      C1193   1.347       .  A
N1182      N2460   1.322       .  A
Co1185    Cl1192   2.452       .  S
C1187      N2457   1.342       .  A
N1189      N2461   1.325       .  A
C1196      C1233   1.456       .  S
C1196      N1214   1.351       .  A
N1197      N1214   1.327       .  A
N1197      N1219   1.321       .  A
C1198      C1236   1.459       .  S
C1198      H1243   1.082       .  S
C1198      N1223   1.341       .  A
H1199      C1240   1.082       .  S
C1200      C1204   1.456       .  S
C1200      H1229   1.082       .  S
C1200      N1224   1.337       .  A
Co1201     N1219   2.077       .  S
Co1201     N1209   2.081       .  S
N1202      C1240   1.342       .  A
N1202      N1209   1.320       .  A
Co1203     N1206   2.085       .  S
Co1203    Cl1245   2.448       .  S
C1204      N1242   1.349       .  A
N1205      N1212   1.320       .  A
N1205      N1235   1.323       .  A
N1205     Co1238   2.079       .  S
N1206      N1224   1.320       .  A
N1206      N1242   1.326       .  A
N1207      C1236   1.349       .  A
N1207      N1217   1.324       .  A
H1208      C1233   1.082       .  S
N1209      N1230   1.323       .  A
N1210      N1228   1.320       .  A
N1210      N1215   1.325       .  A
C1211      C1239   1.456       .  S
C1211      N1215   1.349       .  A
N1212      C1227   1.344       .  A
N1212     Co1234   2.093   1_556  S
C1213      C1216   1.456       .  S
C1213      H1247   1.082       .  S
C1213      N1241   1.337       .  A
C1216      N1237   1.351       .  A
N1217      N1223   1.320       .  A
N1218      C1244   1.344       .  A
N1218      N1220   1.320       .  A
N1219      C1233   1.337       .  A
N1220      N1248   1.323       .  A
H1221      C1244   1.082       .  S
H1222      C1239   1.082       .  S
N1224     Co1238   2.075       .  S
N1225      N1237   1.327       .  A
N1225      N1241   1.320       .  A
C1226      C1240   1.460       .  S
C1226      N1230   1.349       .  A
C1227      C1246   1.462       .  S
C1227      H1231   1.082       .  S
N1228      C1239   1.337       .  A
C1232      C1244   1.462       .  S
C1232      N1248   1.348       .  A
Co1234    Cl1245   2.450   1_554  S
N1235      C1246   1.348       .  A
Co1238    Cl1245   2.451       .  S
C1249      C1250   1.404       .  A
C1249      C1254   1.398       .  A
C1249      H1256   1.084       .  S
C1250      C1251   1.413       .  A
C1251      C1252   1.398       .  A
C1251     Br1258   1.921       .  S
C1252      C1253   1.403       .  A
C1252      H1257   1.084       .  S
C1253      C1254   1.412       .  A
C1254     Br1255   1.922       .  S
C1259      C1260   1.406       .  A
C1259      C1264   1.399       .  A
C1259      H1266   1.083       .  S
C1260      C1261   1.413       .  A
C1261      C1262   1.398       .  A
C1261     Br1268   1.922       .  S
C1262      C1263   1.405       .  A
C1262      H1267   1.084       .  S
C1263      C1264   1.410       .  A
C1264     Br1265   1.920       .  S
C1269      C1270   1.406       .  A
C1269      C1274   1.398       .  A
C1269      H1276   1.083       .  S
C1270      C1271   1.413       .  A
C1271      C1272   1.398       .  A
C1271     Br1278   1.922       .  S
C1272      C1273   1.405       .  A
C1272      H1277   1.084       .  S
C1273      C1274   1.411       .  A
C1274     Br1275   1.921       .  S
C1279      C1280   1.405       .  A
C1279      C1284   1.398       .  A
C1279      H1286   1.083       .  S
C1280      C1281   1.412       .  A
C1281      C1282   1.398       .  A
C1281     Br1288   1.922       .  S
C1282      C1283   1.404       .  A
C1282      H1287   1.084       .  S
C1283      C1284   1.410       .  A
C1284     Br1285   1.920       .  S
C1289      C1290   1.404       .  A
C1289      C1294   1.397       .  A
C1289      H1296   1.084       .  S
C1290      C1291   1.411       .  A
C1291      C1292   1.399       .  A
C1291     Br1298   1.921       .  S
C1292      C1293   1.406       .  A
C1292      H1297   1.084       .  S
C1293      C1294   1.412       .  A
C1294     Br1295   1.922       .  S
C1299      C1300   1.405       .  A
C1299      C1304   1.400       .  A
C1299      H1306   1.083       .  S
C1300      C1301   1.412       .  A
C1301      C1302   1.398       .  A
C1301     Br1308   1.921       .  S
C1302      C1303   1.404       .  A
C1302      H1307   1.084       .  S
C1303      C1304   1.409       .  A
C1304     Br1305   1.918       .  S
C1309      C1310   1.400       .  A
C1309      C1314   1.403       .  A
C1309      C1630   1.482       .  S
C1310      C1311   1.402       .  A
C1310      H1315   1.084       .  S
C1311      C1312   1.404       .  A
C1311      C1523   1.472       .  S
C1312      C1313   1.405       .  A
C1312      H1316   1.084       .  S
C1313      C1314   1.405       .  A
C1313      C1467   1.474       .  S
C1314      H1317   1.084       .  S
C1318      C1319   1.403       .  A
C1318      C1323   1.402       .  A
C1318      C1627   1.485       .  S
C1319      C1320   1.405       .  A
C1319      H1324   1.084       .  S
C1320      C1321   1.405       .  A
C1320      C1573   1.475       .  S
C1321      C1322   1.405       .  A
C1321      H1325   1.084       .  S
C1322      C1323   1.403       .  A
C1322      C1417   1.473       .  S
C1323      H1326   1.084       .  S
C1327      C1328   1.401       .  A
C1327      C1332   1.403       .  A
C1327      C1620   1.484       .  S
C1328      C1329   1.401       .  A
C1328      H1333   1.084       .  S
C1329      C1330   1.403       .  A
C1329      C1531   1.468       .  S
C1330      C1331   1.403       .  A
C1330      H1334   1.084       .  S
C1331      C1332   1.405       .  A
C1331      C1520   1.472       .  S
C1332      H1335   1.084       .  S
C1336      C1337   1.402       .  A
C1336      C1341   1.401       .  A
C1336      C1617   1.483       .  S
C1337      C1338   1.404       .  A
C1337      H1342   1.084       .  S
C1338      C1339   1.405       .  A
C1338      C1553   1.472       .  S
C1339      C1340   1.403       .  A
C1339      H1343   1.084       .  S
C1340      C1341   1.402       .  A
C1340      C1470   1.471       .  S
C1341      H1344   1.084       .  S
C1345      C1346   1.403       .  A
C1345      C1350   1.402       .  A
C1345      C1607   1.484       .  S
C1346      C1347   1.404       .  A
C1346      H1351   1.084       .  S
C1347      C1348   1.403       .  A
C1347      C1500   1.471       .  S
C1348      C1349   1.401       .  A
C1348      H1352   1.084       .  S
C1349      C1350   1.401       .  A
C1349      C1425   1.468       .  S
C1350      H1353   1.084       .  S
C1354      C1355   1.401       .  A
C1354      C1359   1.402       .  A
C1354      C1610   1.482       .  S
C1355      C1356   1.402       .  A
C1355      H1360   1.084       .  S
C1356      C1357   1.403       .  A
C1356      C1478   1.470       .  S
C1357      C1358   1.404       .  A
C1357      H1361   1.084       .  S
C1358      C1359   1.403       .  A
C1358      C1447   1.471       .  S
C1359      H1362   1.084       .  S
C1363      C1364   1.402       .  A
C1363      C1368   1.404       .  A
C1363      C1597   1.487       .  S
C1364      C1365   1.401       .  A
C1364      H1369   1.084       .  S
C1365      C1366   1.403       .  A
C1365      C1485   1.469       .  S
C1366      C1367   1.404       .  A
C1366      H1370   1.084       .  S
C1367      C1368   1.406       .  A
C1367      C1559   1.474       .  S
C1368      H1371   1.084       .  S
C1372      C1373   1.402       .  A
C1372      C1377   1.403       .  A
C1372      C1600   1.485       .  S
C1373      C1374   1.402       .  A
C1373      H1378   1.084       .  S
C1374      C1375   1.403       .  A
C1374      C1543   1.471       .  S
C1375      C1376   1.404       .  A
C1375      H1379   1.084       .  S
C1376      C1377   1.403       .  A
C1376      C1510   1.471       .  S
C1377      H1380   1.084       .  S
C1381      C1382   1.402       .  A
C1381      C1386   1.404       .  A
C1381      C1587   1.487       .  S
C1382      C1383   1.402       .  A
C1382      H1387   1.084       .  S
C1383      C1384   1.403       .  A
C1383      C1490   1.472       .  S
C1384      C1385   1.405       .  A
C1384      H1388   1.084       .  S
C1385      C1386   1.406       .  A
C1385      C1453   1.475       .  S
C1386      H1389   1.084       .  S
C1390      C1391   1.404       .  A
C1390      C1395   1.401       .  A
C1390      C1590   1.485       .  S
C1391      C1392   1.405       .  A
C1391      H1396   1.084       .  S
C1392      C1393   1.405       .  A
C1392      C1506   1.474       .  S
C1393      C1394   1.404       .  A
C1393      H1397   1.084       .  S
C1394      C1395   1.402       .  A
C1394      C1437   1.472       .  S
C1395      H1398   1.084       .  S
C1399      C1400   1.400       .  A
C1399      C1404   1.403       .  A
C1399      C1580   1.481       .  S
C1400      C1401   1.401       .  A
C1400      H1405   1.084       .  S
C1401      C1402   1.403       .  A
C1401      C1538   1.468       .  S
C1402      C1403   1.403       .  A
C1402      H1406   1.084       .  S
C1403      C1404   1.404       .  A
C1403      C1457   1.471       .  S
C1404      H1407   1.084       .  S
C1408      C1409   1.404       .  A
C1408      C1413   1.400       .  A
C1408      C1577   1.482       .  S
C1409      C1410   1.405       .  A
C1409      H1414   1.084       .  S
C1410      C1411   1.404       .  A
C1410      C1563   1.472       .  S
C1411      C1412   1.401       .  A
C1411      H1415   1.084       .  S
C1412      C1413   1.400       .  A
C1412      C1432   1.467       .  S
C1413      H1416   1.084       .  S
C1417      C1454   1.457       .  S
C1417      N1435   1.351       .  A
N1418      N1435   1.327       .  A
N1418      N1440   1.321       .  A
N1418     Co1455   2.091       .  S
C1419      C1457   1.460       .  S
C1419      H1464   1.082       .  S
C1419      N1444   1.343       .  A
H1420      C1461   1.082       .  S
C1421      C1425   1.455       .  S
C1421      H1450   1.082       .  S
C1421      N1445   1.337       .  A
Co1422     N1440   2.079       .  S
Co1422     N1430   2.081       .  S
Co1422     N1462   2.079       .  S
Co1422     N1438   2.079       .  S
Co1422    Cl1466   2.453       .  S
N1423      C1461   1.343       .  A
N1423      N1430   1.320       .  A
N1423     Co1424   2.087       .  S
Co1424     N1754   2.088       .  S
Co1424     N1444   2.088       .  S
Co1424     N1758   2.087       .  S
Co1424    Cl1466   2.450       .  S
C1425      N1463   1.350       .  A
N1426      N1433   1.320       .  A
N1426      N1456   1.323       .  A
N1426     Co1459   2.080       .  S
N1427      N1445   1.321       .  A
N1427      N1463   1.326       .  A
N1427     Co1751   2.088   1_554  S
N1428      C1457   1.348       .  A
N1428      N1438   1.323       .  A
H1429      C1454   1.082       .  S
N1430      N1451   1.323       .  A
N1431      N1449   1.320       .  A
N1431      N1436   1.326       .  A
N1431     Co1751   2.087   1_554  S
C1432      C1460   1.454       .  S
C1432      N1436   1.350       .  A
N1433      C1448   1.344       .  A
N1433     Co1782   2.090   1_554  S
C1434      C1437   1.458       .  S
C1434      H1468   1.082       .  S
C1434      N1462   1.338       .  A
C1437      N1458   1.350       .  A
N1438      N1444   1.320       .  A
N1439      C1465   1.343       .  A
N1439      N1441   1.320       .  A
N1439     Co1782   2.090   1_554  S
N1440      C1454   1.338       .  A
N1441      N1469   1.324       .  A
N1441     Co1459   2.080       .  S
H1442      C1465   1.082       .  S
H1443      C1460   1.082       .  S
N1445     Co1459   2.075       .  S
N1446      N1458   1.326       .  A
N1446      N1462   1.320       .  A
N1446     Co1455   2.088       .  S
C1447      C1461   1.459       .  S
C1447      N1451   1.349       .  A
C1448      C1467   1.461       .  S
C1448      H1452   1.082       .  S
N1449      C1460   1.336       .  A
N1449     Co1459   2.073       .  S
C1453      C1465   1.461       .  S
C1453      N1469   1.349       .  A
Co1455     N1760   2.090       .  S
Co1455     N1766   2.090       .  S
Co1455    Cl1466   2.450       .  S
N1456      C1467   1.349       .  A
Co1459    Cl1793   2.452   1_554  S
Cl1466    Co1786   2.452       .  S
C1470      C1507   1.455       .  S
C1470      N1488   1.351       .  A
N1471      N1493   1.320       .  A
N1471     Co1835   2.092   1_455  S
C1472      C1510   1.458       .  S
C1472      H1517   1.082       .  S
C1472      N1497   1.342       .  A
H1473      C1514   1.082       .  S
C1474      C1478   1.457       .  S
C1474      H1503   1.082       .  S
Co1475     N1493   2.074   1_655  S
Co1475     N1483   2.079   1_655  S
Co1475     N1515   2.079       .  S
Co1475     N1491   2.082       .  S
Co1475    Cl1846   2.452   1_554  S
N1476      N1483   1.319       .  A
N1476     Co1804   2.084   1_454  S
Co1477     N1803   2.084   1_655  S
Co1477     N1480   2.084   1_655  S
Co1477     N1824   2.084       .  S
Co1477     N1484   2.084       .  S
Co1477    Cl1519   2.448       .  S
C1478      N1516   1.349       .  A
N1479      N1486   1.320       .  A
N1479     Co1512   2.077   1_455  S
N1480      N1498   1.320       .  A
N1481      C1510   1.349       .  A
N1481      N1491   1.323       .  A
H1482      C1507   1.082       .  S
N1484      N1502   1.321       .  A
N1484      N1489   1.326       .  A
C1485      C1513   1.458       .  S
C1485      N1489   1.349       .  A
N1486     Co1508   2.091   1_455  S
C1487      C1490   1.456       .  S
C1487      H1521   1.082       .  S
C1487      N1515   1.337       .  A
C1490      N1511   1.351       .  A
N1491      N1497   1.320       .  A
N1492      C1518   1.344       .  A
N1492      N1494   1.320       .  A
N1492     Co1508   2.091       .  S
N1494      N1522   1.323       .  A
N1494     Co1512   2.082       .  S
H1495      C1518   1.082       .  S
H1496      C1513   1.082       .  S
N1497     Co1804   2.084   1_554  S
N1498     Co1512   2.077   1_455  S
N1499      N1511   1.327       .  A
N1499      N1515   1.321       .  A
N1499     Co1835   2.092       .  S
C1500      C1514   1.459       .  S
C1500      N1504   1.348       .  A
C1501      C1520   1.462       .  S
C1501      H1505   1.082       .  S
N1502      C1513   1.338       .  A
N1502     Co1512   2.080       .  S
C1506      C1518   1.461       .  S
C1506      N1522   1.349       .  A
Co1508     N1798   2.092   1_655  S
Co1508     N1826   2.092       .  S
Co1508    Cl1519   2.450       .  S
N1509      C1520   1.347       .  A
Co1512    Cl1519   2.452       .  S
Cl1519    Co1802   2.452       .  S
C1523      C1560   1.456       .  S
C1523      N1541   1.351       .  A
N1524      N1541   1.327       .  A
N1524      N1546   1.321       .  A
N1524     Co1888   2.092       .  S
C1525      C1563   1.459       .  S
C1525      H1570   1.082       .  S
C1525      N1550   1.341       .  A
H1526      C1567   1.082       .  S
C1527      C1531   1.456       .  S
C1527      H1556   1.082       .  S
C1527      N1551   1.337       .  A
Co1528     N1546   2.077       .  S
Co1528     N1536   2.081       .  S
Co1528     N2222   2.076       .  S
Co1528     N2198   2.080       .  S
Co1528    Cl1899   2.452   1_554  S
N1529      C1567   1.342       .  A
N1529      N1536   1.320       .  A
N1529     Co1857   2.085   1_554  S
Co1530     N1856   2.085       .  S
Co1530     N1533   2.085       .  S
Co1530     N2531   2.084       .  S
Co1530     N2191   2.084       .  S
Co1530    Cl1572   2.448       .  S
C1531      N1569   1.349       .  A
N1532      N1539   1.320       .  A
N1532      N1562   1.323       .  A
N1532     Co1565   2.079       .  S
N1533      N1551   1.320       .  A
N1533      N1569   1.326       .  A
N1534      C1563   1.349       .  A
N1534      N1544   1.324       .  A
H1535      C1560   1.082       .  S
N1536      N1557   1.323       .  A
N1537      N1555   1.320       .  A
N1537      N1542   1.325       .  A
N1537     Co2184   2.084   1_545  S
C1538      C1566   1.456       .  S
C1538      N1542   1.349       .  A
N1539      C1554   1.344       .  A
N1539     Co1561   2.093       .  S
C1540      C1543   1.456       .  S
C1540      H1574   1.082       .  S
C1540      N1568   1.337       .  A
C1543      N1564   1.351       .  A
N1544      N1550   1.320       .  A
N1544     Co2182   2.080   1_545  S
N1545      C1571   1.344       .  A
N1545      N1547   1.320       .  A
N1545     Co2215   2.093   1_545  S
N1546      C1560   1.337       .  A
N1547      N1575   1.323       .  A
N1547     Co2219   2.078   1_545  S
H1548      C1571   1.082       .  S
H1549      C1566   1.082       .  S
N1550     Co2511   2.084   1_544  S
N1551     Co1565   2.075       .  S
N1552      N1564   1.327       .  A
N1552      N1568   1.320       .  A
N1552     Co2542   2.091   1_545  S
C1553      C1567   1.460       .  S
C1553      N1557   1.349       .  A
C1554      C1573   1.462       .  S
C1554      H1558   1.082       .  S
N1555      C1566   1.337       .  A
N1555     Co2219   2.075   1_545  S
C1559      C1571   1.462       .  S
C1559      N1575   1.348       .  A
Co1561     N1851   2.092       .  S
Co1561     N2199   2.093       .  S
Co1561     N2533   2.091       .  S
Co1561    Cl1572   2.450       .  S
N1562      C1573   1.348       .  A
Co1565     N2201   2.078       .  S
Co1565     N2209   2.075       .  S
Co1565    Cl1572   2.451       .  S
N1568     Co2182   2.076   1_545  S
Cl1572    Co1855   2.452       .  S
C1576      C1577   1.404       .  A
C1576      C1581   1.398       .  A
C1576      H1583   1.084       .  S
C1577      C1578   1.413       .  A
C1578      C1579   1.398       .  A
C1578     Br1585   1.921       .  S
C1579      C1580   1.403       .  A
C1579      H1584   1.084       .  S
C1580      C1581   1.412       .  A
C1581     Br1582   1.922       .  S
C1586      C1587   1.406       .  A
C1586      C1591   1.399       .  A
C1586      H1593   1.083       .  S
C1587      C1588   1.413       .  A
C1588      C1589   1.398       .  A
C1588     Br1595   1.922       .  S
C1589      C1590   1.405       .  A
C1589      H1594   1.084       .  S
C1590      C1591   1.410       .  A
C1591     Br1592   1.920       .  S
C1596      C1597   1.406       .  A
C1596      C1601   1.398       .  A
C1596      H1603   1.083       .  S
C1597      C1598   1.413       .  A
C1598      C1599   1.398       .  A
C1598     Br1605   1.922       .  S
C1599      C1600   1.405       .  A
C1599      H1604   1.084       .  S
C1600      C1601   1.411       .  A
C1601     Br1602   1.921       .  S
C1606      C1607   1.405       .  A
C1606      C1611   1.398       .  A
C1606      H1613   1.083       .  S
C1607      C1608   1.412       .  A
C1608      C1609   1.398       .  A
C1608     Br1615   1.922       .  S
C1609      C1610   1.404       .  A
C1609      H1614   1.084       .  S
C1610      C1611   1.410       .  A
C1611     Br1612   1.920       .  S
C1616      C1617   1.404       .  A
C1616      C1621   1.397       .  A
C1616      H1623   1.084       .  S
C1617      C1618   1.411       .  A
C1618      C1619   1.399       .  A
C1618     Br1625   1.921       .  S
C1619      C1620   1.406       .  A
C1619      H1624   1.084       .  S
C1620      C1621   1.412       .  A
C1621     Br1622   1.922       .  S
C1626      C1627   1.405       .  A
C1626      C1631   1.400       .  A
C1626      H1633   1.083       .  S
C1627      C1628   1.412       .  A
C1628      C1629   1.398       .  A
C1628     Br1635   1.921       .  S
C1629      C1630   1.404       .  A
C1629      H1634   1.084       .  S
C1630      C1631   1.409       .  A
C1631     Br1632   1.918       .  S
C1636      C1637   1.400       .  A
C1636      C1641   1.403       .  A
C1636      C1957   1.482       .  S
C1637      C1638   1.402       .  A
C1637      H1642   1.084       .  S
C1638      C1639   1.404       .  A
C1638      C1850   1.472       .  S
C1639      C1640   1.405       .  A
C1639      H1643   1.084       .  S
C1640      C1641   1.405       .  A
C1640      C1794   1.474       .  S
C1641      H1644   1.084       .  S
C1645      C1646   1.403       .  A
C1645      C1650   1.402       .  A
C1645      C1954   1.485       .  S
C1646      C1647   1.405       .  A
C1646      H1651   1.084       .  S
C1647      C1648   1.405       .  A
C1647      C1900   1.475       .  S
C1648      C1649   1.405       .  A
C1648      H1652   1.084       .  S
C1649      C1650   1.403       .  A
C1649      C1744   1.473       .  S
C1650      H1653   1.084       .  S
C1654      C1655   1.401       .  A
C1654      C1659   1.403       .  A
C1654      C1947   1.484       .  S
C1655      C1656   1.401       .  A
C1655      H1660   1.084       .  S
C1656      C1657   1.403       .  A
C1656      C1858   1.468       .  S
C1657      C1658   1.403       .  A
C1657      H1661   1.084       .  S
C1658      C1659   1.405       .  A
C1658      C1847   1.472       .  S
C1659      H1662   1.084       .  S
C1663      C1664   1.402       .  A
C1663      C1668   1.401       .  A
C1663      C1944   1.483       .  S
C1664      C1665   1.404       .  A
C1664      H1669   1.084       .  S
C1665      C1666   1.405       .  A
C1665      C1880   1.472       .  S
C1666      C1667   1.403       .  A
C1666      H1670   1.084       .  S
C1667      C1668   1.402       .  A
C1667      C1797   1.471       .  S
C1668      H1671   1.084       .  S
C1672      C1673   1.403       .  A
C1672      C1677   1.402       .  A
C1672      C1934   1.484       .  S
C1673      C1674   1.404       .  A
C1673      H1678   1.084       .  S
C1674      C1675   1.403       .  A
C1674      C1827   1.471       .  S
C1675      C1676   1.401       .  A
C1675      H1679   1.084       .  S
C1676      C1677   1.401       .  A
C1676      C1752   1.468       .  S
C1677      H1680   1.084       .  S
C1681      C1682   1.401       .  A
C1681      C1686   1.402       .  A
C1681      C1937   1.482       .  S
C1682      C1683   1.402       .  A
C1682      H1687   1.084       .  S
C1683      C1684   1.403       .  A
C1683      C1805   1.470       .  S
C1684      C1685   1.404       .  A
C1684      H1688   1.084       .  S
C1685      C1686   1.403       .  A
C1685      C1774   1.471       .  S
C1686      H1689   1.084       .  S
C1690      C1691   1.402       .  A
C1690      C1695   1.404       .  A
C1690      C1924   1.487       .  S
C1691      C1692   1.401       .  A
C1691      H1696   1.084       .  S
C1692      C1693   1.403       .  A
C1692      C1812   1.469       .  S
C1693      C1694   1.404       .  A
C1693      H1697   1.084       .  S
C1694      C1695   1.406       .  A
C1694      C1886   1.474       .  S
C1695      H1698   1.084       .  S
C1699      C1700   1.402       .  A
C1699      C1704   1.403       .  A
C1699      C1927   1.485       .  S
C1700      C1701   1.402       .  A
C1700      H1705   1.084       .  S
C1701      C1702   1.403       .  A
C1701      C1870   1.471       .  S
C1702      C1703   1.404       .  A
C1702      H1706   1.084       .  S
C1703      C1704   1.403       .  A
C1703      C1837   1.471       .  S
C1704      H1707   1.084       .  S
C1708      C1709   1.402       .  A
C1708      C1713   1.404       .  A
C1708      C1914   1.487       .  S
C1709      C1710   1.402       .  A
C1709      H1714   1.084       .  S
C1710      C1711   1.403       .  A
C1710      C1817   1.472       .  S
C1711      C1712   1.405       .  A
C1711      H1715   1.084       .  S
C1712      C1713   1.406       .  A
C1712      C1780   1.475       .  S
C1713      H1716   1.084       .  S
C1717      C1718   1.404       .  A
C1717      C1722   1.401       .  A
C1717      C1917   1.485       .  S
C1718      C1719   1.405       .  A
C1718      H1723   1.084       .  S
C1719      C1720   1.405       .  A
C1719      C1833   1.474       .  S
C1720      C1721   1.404       .  A
C1720      H1724   1.084       .  S
C1721      C1722   1.402       .  A
C1721      C1764   1.472       .  S
C1722      H1725   1.084       .  S
C1726      C1727   1.400       .  A
C1726      C1731   1.403       .  A
C1726      C1907   1.481       .  S
C1727      C1728   1.401       .  A
C1727      H1732   1.084       .  S
C1728      C1729   1.403       .  A
C1728      C1865   1.468       .  S
C1729      C1730   1.403       .  A
C1729      H1733   1.084       .  S
C1730      C1731   1.404       .  A
C1730      C1784   1.471       .  S
C1731      H1734   1.084       .  S
C1735      C1736   1.404       .  A
C1735      C1740   1.400       .  A
C1735      C1904   1.482       .  S
C1736      C1737   1.405       .  A
C1736      H1741   1.084       .  S
C1737      C1738   1.404       .  A
C1737      C1890   1.472       .  S
C1738      C1739   1.401       .  A
C1738      H1742   1.084       .  S
C1739      C1740   1.400       .  A
C1739      C1759   1.467       .  S
C1740      H1743   1.084       .  S
C1744      C1781   1.457       .  S
C1744      N1762   1.351       .  A
N1745      N1762   1.327       .  A
N1745      N1767   1.321       .  A
N1745     Co1782   2.091       .  S
C1746      C1784   1.460       .  S
C1746      H1791   1.082       .  S
C1746      N1771   1.343       .  A
H1747      C1788   1.082       .  S
C1748      C1752   1.455       .  S
C1748      H1777   1.082       .  S
C1748      N1772   1.337       .  A
Co1749     N1767   2.079       .  S
Co1749     N1757   2.081       .  S
Co1749     N1789   2.079       .  S
Co1749     N1765   2.079       .  S
Co1749    Cl1793   2.453       .  S
N1750      C1788   1.343       .  A
N1750      N1757   1.320       .  A
N1750     Co1751   2.087       .  S
Co1751     N1771   2.088       .  S
Co1751    Cl1793   2.450       .  S
C1752      N1790   1.350       .  A
N1753      N1760   1.320       .  A
N1753      N1783   1.323       .  A
N1753     Co1786   2.080       .  S
N1754      N1772   1.321       .  A
N1754      N1790   1.326       .  A
N1755      C1784   1.348       .  A
N1755      N1765   1.323       .  A
H1756      C1781   1.082       .  S
N1757      N1778   1.323       .  A
N1758      N1776   1.320       .  A
N1758      N1763   1.326       .  A
C1759      C1787   1.454       .  S
C1759      N1763   1.350       .  A
N1760      C1775   1.344       .  A
C1761      C1764   1.458       .  S
C1761      H1795   1.082       .  S
C1761      N1789   1.338       .  A
C1764      N1785   1.350       .  A
N1765      N1771   1.320       .  A
N1766      C1792   1.343       .  A
N1766      N1768   1.320       .  A
N1767      C1781   1.338       .  A
N1768      N1796   1.324       .  A
N1768     Co1786   2.080       .  S
H1769      C1792   1.082       .  S
H1770      C1787   1.082       .  S
N1772     Co1786   2.075       .  S
N1773      N1785   1.326       .  A
N1773      N1789   1.320       .  A
N1773     Co1782   2.088       .  S
C1774      C1788   1.459       .  S
C1774      N1778   1.349       .  A
C1775      C1794   1.461       .  S
C1775      H1779   1.082       .  S
N1776      C1787   1.336       .  A
N1776     Co1786   2.073       .  S
C1780      C1792   1.461       .  S
C1780      N1796   1.349       .  A
Co1782    Cl1793   2.450       .  S
N1783      C1794   1.349       .  A
C1797      C1834   1.455       .  S
C1797      N1815   1.351       .  A
N1798      N1820   1.320       .  A
C1799      C1837   1.458       .  S
C1799      H1844   1.082       .  S
C1799      N1824   1.342       .  A
H1800      C1841   1.082       .  S
C1801      C1805   1.457       .  S
C1801      H1830   1.082       .  S
Co1802     N1820   2.074   1_655  S
Co1802     N1810   2.079   1_655  S
Co1802     N1842   2.079       .  S
Co1802     N1818   2.082       .  S
N1803      N1810   1.319       .  A
Co1804     N1807   2.084   1_655  S
Co1804     N1811   2.084       .  S
Co1804    Cl1846   2.448       .  S
C1805      N1843   1.349       .  A
N1806      N1813   1.320       .  A
N1806     Co1839   2.077   1_455  S
N1807      N1825   1.320       .  A
N1808      C1837   1.349       .  A
N1808      N1818   1.323       .  A
H1809      C1834   1.082       .  S
N1811      N1829   1.321       .  A
N1811      N1816   1.326       .  A
C1812      C1840   1.458       .  S
C1812      N1816   1.349       .  A
N1813     Co1835   2.091   1_456  S
C1814      C1817   1.456       .  S
C1814      H1848   1.082       .  S
C1814      N1842   1.337       .  A
C1817      N1838   1.351       .  A
N1818      N1824   1.320       .  A
N1819      C1845   1.344       .  A
N1819      N1821   1.320       .  A
N1819     Co1835   2.091   1_556  S
N1821      N1849   1.323       .  A
N1821     Co1839   2.082       .  S
H1822      C1845   1.082       .  S
H1823      C1840   1.082       .  S
N1825     Co1839   2.077   1_455  S
N1826      N1838   1.327       .  A
N1826      N1842   1.321       .  A
C1827      C1841   1.459       .  S
C1827      N1831   1.348       .  A
C1828      C1847   1.462       .  S
C1828      H1832   1.082       .  S
N1829      C1840   1.338       .  A
N1829     Co1839   2.080       .  S
C1833      C1845   1.461       .  S
C1833      N1849   1.349       .  A
Co1835    Cl1846   2.450   1_554  S
N1836      C1847   1.347       .  A
Co1839    Cl1846   2.452       .  S
C1850      C1887   1.456       .  S
C1850      N1868   1.351       .  A
N1851      N1868   1.327       .  A
N1851      N1873   1.321       .  A
C1852      C1890   1.459       .  S
C1852      H1897   1.082       .  S
C1852      N1877   1.341       .  A
H1853      C1894   1.082       .  S
C1854      C1858   1.456       .  S
C1854      H1883   1.082       .  S
C1854      N1878   1.337       .  A
Co1855     N1873   2.077       .  S
Co1855     N1863   2.081       .  S
Co1855     N2549   2.076       .  S
Co1855     N2525   2.080       .  S
N1856      C1894   1.342       .  A
N1856      N1863   1.320       .  A
Co1857     N1860   2.085       .  S
Co1857     N2204   2.084   1_556  S
Co1857     N2518   2.084       .  S
Co1857    Cl1899   2.448       .  S
C1858      N1896   1.349       .  A
N1859      N1866   1.320       .  A
N1859      N1889   1.323       .  A
N1859     Co1892   2.079       .  S
N1860      N1878   1.320       .  A
N1860      N1896   1.326       .  A
N1861      C1890   1.349       .  A
N1861      N1871   1.324       .  A
H1862      C1887   1.082       .  S
N1863      N1884   1.323       .  A
N1864      N1882   1.320       .  A
N1864      N1869   1.325       .  A
N1864     Co2511   2.084   1_545  S
C1865      C1893   1.456       .  S
C1865      N1869   1.349       .  A
N1866      C1881   1.344       .  A
N1866     Co1888   2.093   1_556  S
C1867      C1870   1.456       .  S
C1867      H1901   1.082       .  S
C1867      N1895   1.337       .  A
C1870      N1891   1.351       .  A
N1871      N1877   1.320       .  A
N1871     Co2509   2.080   1_545  S
N1872      C1898   1.344       .  A
N1872      N1874   1.320       .  A
N1872     Co2542   2.093   1_546  S
N1873      C1887   1.337       .  A
N1874      N1902   1.323       .  A
N1874     Co2546   2.078   1_545  S
H1875      C1898   1.082       .  S
H1876      C1893   1.082       .  S
N1877     Co2184   2.084   1_545  S
N1878     Co1892   2.075       .  S
N1879      N1891   1.327       .  A
N1879      N1895   1.320       .  A
N1879     Co2215   2.091   1_545  S
C1880      C1894   1.460       .  S
C1880      N1884   1.349       .  A
C1881      C1900   1.462       .  S
C1881      H1885   1.082       .  S
N1882      C1893   1.337       .  A
N1882     Co2546   2.075   1_545  S
C1886      C1898   1.462       .  S
C1886      N1902   1.348       .  A
Co1888     N2526   2.093   1_554  S
Co1888     N2206   2.091       .  S
Co1888    Cl1899   2.450   1_554  S
N1889      C1900   1.348       .  A
Co1892     N2528   2.078       .  S
Co1892     N2536   2.075       .  S
Co1892    Cl1899   2.451       .  S
N1895     Co2509   2.076   1_545  S
C1903      C1904   1.404       .  A
C1903      C1908   1.398       .  A
C1903      H1910   1.084       .  S
C1904      C1905   1.413       .  A
C1905      C1906   1.398       .  A
C1905     Br1912   1.921       .  S
C1906      C1907   1.403       .  A
C1906      H1911   1.084       .  S
C1907      C1908   1.412       .  A
C1908     Br1909   1.922       .  S
C1913      C1914   1.406       .  A
C1913      C1918   1.399       .  A
C1913      H1920   1.083       .  S
C1914      C1915   1.413       .  A
C1915      C1916   1.398       .  A
C1915     Br1922   1.922       .  S
C1916      C1917   1.405       .  A
C1916      H1921   1.084       .  S
C1917      C1918   1.410       .  A
C1918     Br1919   1.920       .  S
C1923      C1924   1.406       .  A
C1923      C1928   1.398       .  A
C1923      H1930   1.083       .  S
C1924      C1925   1.413       .  A
C1925      C1926   1.398       .  A
C1925     Br1932   1.922       .  S
C1926      C1927   1.405       .  A
C1926      H1931   1.084       .  S
C1927      C1928   1.411       .  A
C1928     Br1929   1.921       .  S
C1933      C1934   1.405       .  A
C1933      C1938   1.398       .  A
C1933      H1940   1.083       .  S
C1934      C1935   1.412       .  A
C1935      C1936   1.398       .  A
C1935     Br1942   1.922       .  S
C1936      C1937   1.404       .  A
C1936      H1941   1.084       .  S
C1937      C1938   1.410       .  A
C1938     Br1939   1.920       .  S
C1943      C1944   1.404       .  A
C1943      C1948   1.397       .  A
C1943      H1950   1.084       .  S
C1944      C1945   1.411       .  A
C1945      C1946   1.399       .  A
C1945     Br1952   1.921       .  S
C1946      C1947   1.406       .  A
C1946      H1951   1.084       .  S
C1947      C1948   1.412       .  A
C1948     Br1949   1.922       .  S
C1953      C1954   1.405       .  A
C1953      C1958   1.400       .  A
C1953      H1960   1.083       .  S
C1954      C1955   1.412       .  A
C1955      C1956   1.398       .  A
C1955     Br1962   1.921       .  S
C1956      C1957   1.404       .  A
C1956      H1961   1.084       .  S
C1957      C1958   1.409       .  A
C1958     Br1959   1.918       .  S
C1963      C1964   1.400       .  A
C1963      C1968   1.403       .  A
C1963      C2284   1.482       .  S
C1964      C1965   1.402       .  A
C1964      H1969   1.084       .  S
C1965      C1966   1.404       .  A
C1965      C2177   1.472       .  S
C1966      C1967   1.405       .  A
C1966      H1970   1.084       .  S
C1967      C1968   1.405       .  A
C1967      C2121   1.474       .  S
C1968      H1971   1.084       .  S
C1972      C1973   1.403       .  A
C1972      C1977   1.402       .  A
C1972      C2281   1.485       .  S
C1973      C1974   1.405       .  A
C1973      H1978   1.084       .  S
C1974      C1975   1.405       .  A
C1974      C2227   1.475       .  S
C1975      C1976   1.405       .  A
C1975      H1979   1.084       .  S
C1976      C1977   1.403       .  A
C1976      C2071   1.473       .  S
C1977      H1980   1.084       .  S
C1981      C1982   1.401       .  A
C1981      C1986   1.403       .  A
C1981      C2274   1.484       .  S
C1982      C1983   1.401       .  A
C1982      H1987   1.084       .  S
C1983      C1984   1.403       .  A
C1983      C2185   1.468       .  S
C1984      C1985   1.403       .  A
C1984      H1988   1.084       .  S
C1985      C1986   1.405       .  A
C1985      C2174   1.472       .  S
C1986      H1989   1.084       .  S
C1990      C1991   1.402       .  A
C1990      C1995   1.401       .  A
C1990      C2271   1.483       .  S
C1991      C1992   1.404       .  A
C1991      H1996   1.084       .  S
C1992      C1993   1.405       .  A
C1992      C2207   1.472       .  S
C1993      C1994   1.403       .  A
C1993      H1997   1.084       .  S
C1994      C1995   1.402       .  A
C1994      C2124   1.471       .  S
C1995      H1998   1.084       .  S
C1999      C2000   1.403       .  A
C1999      C2004   1.402       .  A
C1999      C2261   1.484       .  S
C2000      C2001   1.404       .  A
C2000      H2005   1.084       .  S
C2001      C2002   1.403       .  A
C2001      C2154   1.471       .  S
C2002      C2003   1.401       .  A
C2002      H2006   1.084       .  S
C2003      C2004   1.401       .  A
C2003      C2079   1.468       .  S
C2004      H2007   1.084       .  S
C2008      C2009   1.401       .  A
C2008      C2013   1.402       .  A
C2008      C2264   1.482       .  S
C2009      C2010   1.402       .  A
C2009      H2014   1.084       .  S
C2010      C2011   1.403       .  A
C2010      C2132   1.470       .  S
C2011      C2012   1.404       .  A
C2011      H2015   1.084       .  S
C2012      C2013   1.403       .  A
C2012      C2101   1.471       .  S
C2013      H2016   1.084       .  S
C2017      C2018   1.402       .  A
C2017      C2022   1.404       .  A
C2017      C2251   1.487       .  S
C2018      C2019   1.401       .  A
C2018      H2023   1.084       .  S
C2019      C2020   1.403       .  A
C2019      C2139   1.469       .  S
C2020      C2021   1.404       .  A
C2020      H2024   1.084       .  S
C2021      C2022   1.406       .  A
C2021      C2213   1.474       .  S
C2022      H2025   1.084       .  S
C2026      C2027   1.402       .  A
C2026      C2031   1.403       .  A
C2026      C2254   1.485       .  S
C2027      C2028   1.402       .  A
C2027      H2032   1.084       .  S
C2028      C2029   1.403       .  A
C2028      C2197   1.471       .  S
C2029      C2030   1.404       .  A
C2029      H2033   1.084       .  S
C2030      C2031   1.403       .  A
C2030      C2164   1.471       .  S
C2031      H2034   1.084       .  S
C2035      C2036   1.402       .  A
C2035      C2040   1.404       .  A
C2035      C2241   1.487       .  S
C2036      C2037   1.402       .  A
C2036      H2041   1.084       .  S
C2037      C2038   1.403       .  A
C2037      C2144   1.472       .  S
C2038      C2039   1.405       .  A
C2038      H2042   1.084       .  S
C2039      C2040   1.406       .  A
C2039      C2107   1.475       .  S
C2040      H2043   1.084       .  S
C2044      C2045   1.404       .  A
C2044      C2049   1.401       .  A
C2044      C2244   1.485       .  S
C2045      C2046   1.405       .  A
C2045      H2050   1.084       .  S
C2046      C2047   1.405       .  A
C2046      C2160   1.474       .  S
C2047      C2048   1.404       .  A
C2047      H2051   1.084       .  S
C2048      C2049   1.402       .  A
C2048      C2091   1.472       .  S
C2049      H2052   1.084       .  S
C2053      C2054   1.400       .  A
C2053      C2058   1.403       .  A
C2053      C2234   1.481       .  S
C2054      C2055   1.401       .  A
C2054      H2059   1.084       .  S
C2055      C2056   1.403       .  A
C2055      C2192   1.468       .  S
C2056      C2057   1.403       .  A
C2056      H2060   1.084       .  S
C2057      C2058   1.404       .  A
C2057      C2111   1.471       .  S
C2058      H2061   1.084       .  S
C2062      C2063   1.404       .  A
C2062      C2067   1.400       .  A
C2062      C2231   1.482       .  S
C2063      C2064   1.405       .  A
C2063      H2068   1.084       .  S
C2064      C2065   1.404       .  A
C2064      C2217   1.472       .  S
C2065      C2066   1.401       .  A
C2065      H2069   1.084       .  S
C2066      C2067   1.400       .  A
C2066      C2086   1.467       .  S
C2067      H2070   1.084       .  S
C2071      C2108   1.457       .  S
C2071      N2089   1.351       .  A
N2072      N2089   1.327       .  A
N2072      N2094   1.321       .  A
N2072     Co2109   2.091       .  S
C2073      C2111   1.460       .  S
C2073      H2118   1.082       .  S
C2073      N2098   1.343       .  A
H2074      C2115   1.082       .  S
C2075      C2079   1.455       .  S
C2075      H2104   1.082       .  S
C2075      N2099   1.337       .  A
Co2076     N2094   2.079       .  S
Co2076     N2084   2.081       .  S
Co2076     N2116   2.079       .  S
Co2076     N2092   2.079       .  S
Co2076    Cl2120   2.453       .  S
N2077      C2115   1.343       .  A
N2077      N2084   1.320       .  A
N2077     Co2078   2.087       .  S
Co2078     N2408   2.088       .  S
Co2078     N2098   2.088       .  S
Co2078     N2412   2.087       .  S
Co2078    Cl2120   2.450       .  S
C2079      N2117   1.350       .  A
N2080      N2087   1.320       .  A
N2080      N2110   1.323       .  A
N2080     Co2113   2.080       .  S
N2081      N2099   1.321       .  A
N2081      N2117   1.326       .  A
N2081     Co2405   2.088   1_554  S
N2082      C2111   1.348       .  A
N2082      N2092   1.323       .  A
H2083      C2108   1.082       .  S
N2084      N2105   1.323       .  A
N2085      N2103   1.320       .  A
N2085      N2090   1.326       .  A
N2085     Co2405   2.087   1_554  S
C2086      C2114   1.454       .  S
C2086      N2090   1.350       .  A
N2087      C2102   1.344       .  A
N2087     Co2436   2.090   1_554  S
C2088      C2091   1.458       .  S
C2088      H2122   1.082       .  S
C2088      N2116   1.338       .  A
C2091      N2112   1.350       .  A
N2092      N2098   1.320       .  A
N2093      C2119   1.343       .  A
N2093      N2095   1.320       .  A
N2093     Co2436   2.090   1_554  S
N2094      C2108   1.338       .  A
N2095      N2123   1.324       .  A
N2095     Co2113   2.080       .  S
H2096      C2119   1.082       .  S
H2097      C2114   1.082       .  S
N2099     Co2113   2.075       .  S
N2100      N2112   1.326       .  A
N2100      N2116   1.320       .  A
N2100     Co2109   2.088       .  S
C2101      C2115   1.459       .  S
C2101      N2105   1.349       .  A
C2102      C2121   1.461       .  S
C2102      H2106   1.082       .  S
N2103      C2114   1.336       .  A
N2103     Co2113   2.073       .  S
C2107      C2119   1.461       .  S
C2107      N2123   1.349       .  A
Co2109     N2414   2.090       .  S
Co2109     N2420   2.090       .  S
Co2109    Cl2120   2.450       .  S
N2110      C2121   1.349       .  A
Co2113    Cl2447   2.452   1_554  S
Cl2120    Co2440   2.452       .  S
C2124      C2161   1.455       .  S
C2124      N2142   1.351       .  A
N2125      N2147   1.320       .  A
N2125     Co2489   2.092   1_455  S
C2126      C2164   1.458       .  S
C2126      H2171   1.082       .  S
C2126      N2151   1.342       .  A
H2127      C2168   1.082       .  S
C2128      C2132   1.457       .  S
C2128      H2157   1.082       .  S
Co2129     N2147   2.074   1_655  S
Co2129     N2137   2.079   1_655  S
Co2129     N2169   2.079       .  S
Co2129     N2145   2.082       .  S
Co2129    Cl2500   2.452   1_554  S
N2130      N2137   1.319       .  A
N2130     Co2458   2.084   1_454  S
Co2131     N2457   2.084   1_655  S
Co2131     N2134   2.084   1_655  S
Co2131     N2478   2.084       .  S
Co2131     N2138   2.084       .  S
Co2131    Cl2173   2.448       .  S
C2132      N2170   1.349       .  A
N2133      N2140   1.320       .  A
N2133     Co2166   2.077   1_455  S
N2134      N2152   1.320       .  A
N2135      C2164   1.349       .  A
N2135      N2145   1.323       .  A
H2136      C2161   1.082       .  S
N2138      N2156   1.321       .  A
N2138      N2143   1.326       .  A
C2139      C2167   1.458       .  S
C2139      N2143   1.349       .  A
N2140     Co2162   2.091   1_455  S
C2141      C2144   1.456       .  S
C2141      H2175   1.082       .  S
C2141      N2169   1.337       .  A
C2144      N2165   1.351       .  A
N2145      N2151   1.320       .  A
N2146      C2172   1.344       .  A
N2146      N2148   1.320       .  A
N2146     Co2162   2.091       .  S
N2148      N2176   1.323       .  A
N2148     Co2166   2.082       .  S
H2149      C2172   1.082       .  S
H2150      C2167   1.082       .  S
N2151     Co2458   2.084   1_554  S
N2152     Co2166   2.077   1_455  S
N2153      N2165   1.327       .  A
N2153      N2169   1.321       .  A
N2153     Co2489   2.092       .  S
C2154      C2168   1.459       .  S
C2154      N2158   1.348       .  A
C2155      C2174   1.462       .  S
C2155      H2159   1.082       .  S
N2156      C2167   1.338       .  A
N2156     Co2166   2.080       .  S
C2160      C2172   1.461       .  S
C2160      N2176   1.349       .  A
Co2162     N2452   2.092   1_655  S
Co2162     N2480   2.092       .  S
Co2162    Cl2173   2.450       .  S
N2163      C2174   1.347       .  A
Co2166    Cl2173   2.452       .  S
Cl2173    Co2456   2.452       .  S
C2177      C2214   1.456       .  S
C2177      N2195   1.351       .  A
N2178      N2195   1.327       .  A
N2178      N2200   1.321       .  A
N2178     Co2542   2.092       .  S
C2179      C2217   1.459       .  S
C2179      H2224   1.082       .  S
C2179      N2204   1.341       .  A
H2180      C2221   1.082       .  S
C2181      C2185   1.456       .  S
C2181      H2210   1.082       .  S
C2181      N2205   1.337       .  A
Co2182     N2200   2.077       .  S
Co2182     N2190   2.081       .  S
Co2182    Cl2553   2.452   1_554  S
N2183      C2221   1.342       .  A
N2183      N2190   1.320       .  A
N2183     Co2511   2.085   1_554  S
Co2184     N2510   2.085       .  S
Co2184     N2187   2.085       .  S
Co2184    Cl2226   2.448       .  S
C2185      N2223   1.349       .  A
N2186      N2193   1.320       .  A
N2186      N2216   1.323       .  A
N2186     Co2219   2.079       .  S
N2187      N2205   1.320       .  A
N2187      N2223   1.326       .  A
N2188      C2217   1.349       .  A
N2188      N2198   1.324       .  A
H2189      C2214   1.082       .  S
N2190      N2211   1.323       .  A
N2191      N2209   1.320       .  A
N2191      N2196   1.325       .  A
C2192      C2220   1.456       .  S
C2192      N2196   1.349       .  A
N2193      C2208   1.344       .  A
N2193     Co2215   2.093       .  S
C2194      C2197   1.456       .  S
C2194      H2228   1.082       .  S
C2194      N2222   1.337       .  A
C2197      N2218   1.351       .  A
N2198      N2204   1.320       .  A
N2199      C2225   1.344       .  A
N2199      N2201   1.320       .  A
N2200      C2214   1.337       .  A
N2201      N2229   1.323       .  A
H2202      C2225   1.082       .  S
H2203      C2220   1.082       .  S
N2205     Co2219   2.075       .  S
N2206      N2218   1.327       .  A
N2206      N2222   1.320       .  A
C2207      C2221   1.460       .  S
C2207      N2211   1.349       .  A
C2208      C2227   1.462       .  S
C2208      H2212   1.082       .  S
N2209      C2220   1.337       .  A
C2213      C2225   1.462       .  S
C2213      N2229   1.348       .  A
Co2215     N2505   2.092       .  S
Co2215    Cl2226   2.450       .  S
N2216      C2227   1.348       .  A
Co2219    Cl2226   2.451       .  S
Cl2226    Co2509   2.452       .  S
C2230      C2231   1.404       .  A
C2230      C2235   1.398       .  A
C2230      H2237   1.084       .  S
C2231      C2232   1.413       .  A
C2232      C2233   1.398       .  A
C2232     Br2239   1.921       .  S
C2233      C2234   1.403       .  A
C2233      H2238   1.084       .  S
C2234      C2235   1.412       .  A
C2235     Br2236   1.922       .  S
C2240      C2241   1.406       .  A
C2240      C2245   1.399       .  A
C2240      H2247   1.083       .  S
C2241      C2242   1.413       .  A
C2242      C2243   1.398       .  A
C2242     Br2249   1.922       .  S
C2243      C2244   1.405       .  A
C2243      H2248   1.084       .  S
C2244      C2245   1.410       .  A
C2245     Br2246   1.920       .  S
C2250      C2251   1.406       .  A
C2250      C2255   1.398       .  A
C2250      H2257   1.083       .  S
C2251      C2252   1.413       .  A
C2252      C2253   1.398       .  A
C2252     Br2259   1.922       .  S
C2253      C2254   1.405       .  A
C2253      H2258   1.084       .  S
C2254      C2255   1.411       .  A
C2255     Br2256   1.921       .  S
C2260      C2261   1.405       .  A
C2260      C2265   1.398       .  A
C2260      H2267   1.083       .  S
C2261      C2262   1.412       .  A
C2262      C2263   1.398       .  A
C2262     Br2269   1.922       .  S
C2263      C2264   1.404       .  A
C2263      H2268   1.084       .  S
C2264      C2265   1.410       .  A
C2265     Br2266   1.920       .  S
C2270      C2271   1.404       .  A
C2270      C2275   1.397       .  A
C2270      H2277   1.084       .  S
C2271      C2272   1.411       .  A
C2272      C2273   1.399       .  A
C2272     Br2279   1.921       .  S
C2273      C2274   1.406       .  A
C2273      H2278   1.084       .  S
C2274      C2275   1.412       .  A
C2275     Br2276   1.922       .  S
C2280      C2281   1.405       .  A
C2280      C2285   1.400       .  A
C2280      H2287   1.083       .  S
C2281      C2282   1.412       .  A
C2282      C2283   1.398       .  A
C2282     Br2289   1.921       .  S
C2283      C2284   1.404       .  A
C2283      H2288   1.084       .  S
C2284      C2285   1.409       .  A
C2285     Br2286   1.918       .  S
C2290      C2291   1.400       .  A
C2290      C2295   1.403       .  A
C2290      C2611   1.482       .  S
C2291      C2292   1.402       .  A
C2291      H2296   1.084       .  S
C2292      C2293   1.404       .  A
C2292      C2504   1.472       .  S
C2293      C2294   1.405       .  A
C2293      H2297   1.084       .  S
C2294      C2295   1.405       .  A
C2294      C2448   1.474       .  S
C2295      H2298   1.084       .  S
C2299      C2300   1.403       .  A
C2299      C2304   1.402       .  A
C2299      C2608   1.485       .  S
C2300      C2301   1.405       .  A
C2300      H2305   1.084       .  S
C2301      C2302   1.405       .  A
C2301      C2554   1.475       .  S
C2302      C2303   1.405       .  A
C2302      H2306   1.084       .  S
C2303      C2304   1.403       .  A
C2303      C2398   1.473       .  S
C2304      H2307   1.084       .  S
C2308      C2309   1.401       .  A
C2308      C2313   1.403       .  A
C2308      C2601   1.484       .  S
C2309      C2310   1.401       .  A
C2309      H2314   1.084       .  S
C2310      C2311   1.403       .  A
C2310      C2512   1.468       .  S
C2311      C2312   1.403       .  A
C2311      H2315   1.084       .  S
C2312      C2313   1.405       .  A
C2312      C2501   1.472       .  S
C2313      H2316   1.084       .  S
C2317      C2318   1.402       .  A
C2317      C2322   1.401       .  A
C2317      C2598   1.483       .  S
C2318      C2319   1.404       .  A
C2318      H2323   1.084       .  S
C2319      C2320   1.405       .  A
C2319      C2534   1.472       .  S
C2320      C2321   1.403       .  A
C2320      H2324   1.084       .  S
C2321      C2322   1.402       .  A
C2321      C2451   1.471       .  S
C2322      H2325   1.084       .  S
C2326      C2327   1.403       .  A
C2326      C2331   1.402       .  A
C2326      C2588   1.484       .  S
C2327      C2328   1.404       .  A
C2327      H2332   1.084       .  S
C2328      C2329   1.403       .  A
C2328      C2481   1.471       .  S
C2329      C2330   1.401       .  A
C2329      H2333   1.084       .  S
C2330      C2331   1.401       .  A
C2330      C2406   1.468       .  S
C2331      H2334   1.084       .  S
C2335      C2336   1.401       .  A
C2335      C2340   1.402       .  A
C2335      C2591   1.482       .  S
C2336      C2337   1.402       .  A
C2336      H2341   1.084       .  S
C2337      C2338   1.403       .  A
C2337      C2459   1.470       .  S
C2338      C2339   1.404       .  A
C2338      H2342   1.084       .  S
C2339      C2340   1.403       .  A
C2339      C2428   1.471       .  S
C2340      H2343   1.084       .  S
C2344      C2345   1.402       .  A
C2344      C2349   1.404       .  A
C2344      C2578   1.487       .  S
C2345      C2346   1.401       .  A
C2345      H2350   1.084       .  S
C2346      C2347   1.403       .  A
C2346      C2466   1.469       .  S
C2347      C2348   1.404       .  A
C2347      H2351   1.084       .  S
C2348      C2349   1.406       .  A
C2348      C2540   1.474       .  S
C2349      H2352   1.084       .  S
C2353      C2354   1.402       .  A
C2353      C2358   1.403       .  A
C2353      C2581   1.485       .  S
C2354      C2355   1.402       .  A
C2354      H2359   1.084       .  S
C2355      C2356   1.403       .  A
C2355      C2524   1.471       .  S
C2356      C2357   1.404       .  A
C2356      H2360   1.084       .  S
C2357      C2358   1.403       .  A
C2357      C2491   1.471       .  S
C2358      H2361   1.084       .  S
C2362      C2363   1.402       .  A
C2362      C2367   1.404       .  A
C2362      C2568   1.487       .  S
C2363      C2364   1.402       .  A
C2363      H2368   1.084       .  S
C2364      C2365   1.403       .  A
C2364      C2471   1.472       .  S
C2365      C2366   1.405       .  A
C2365      H2369   1.084       .  S
C2366      C2367   1.406       .  A
C2366      C2434   1.475       .  S
C2367      H2370   1.084       .  S
C2371      C2372   1.404       .  A
C2371      C2376   1.401       .  A
C2371      C2571   1.485       .  S
C2372      C2373   1.405       .  A
C2372      H2377   1.084       .  S
C2373      C2374   1.405       .  A
C2373      C2487   1.474       .  S
C2374      C2375   1.404       .  A
C2374      H2378   1.084       .  S
C2375      C2376   1.402       .  A
C2375      C2418   1.472       .  S
C2376      H2379   1.084       .  S
C2380      C2381   1.400       .  A
C2380      C2385   1.403       .  A
C2380      C2561   1.481       .  S
C2381      C2382   1.401       .  A
C2381      H2386   1.084       .  S
C2382      C2383   1.403       .  A
C2382      C2519   1.468       .  S
C2383      C2384   1.403       .  A
C2383      H2387   1.084       .  S
C2384      C2385   1.404       .  A
C2384      C2438   1.471       .  S
C2385      H2388   1.084       .  S
C2389      C2390   1.404       .  A
C2389      C2394   1.400       .  A
C2389      C2558   1.482       .  S
C2390      C2391   1.405       .  A
C2390      H2395   1.084       .  S
C2391      C2392   1.404       .  A
C2391      C2544   1.472       .  S
C2392      C2393   1.401       .  A
C2392      H2396   1.084       .  S
C2393      C2394   1.400       .  A
C2393      C2413   1.467       .  S
C2394      H2397   1.084       .  S
C2398      C2435   1.457       .  S
C2398      N2416   1.351       .  A
N2399      N2416   1.327       .  A
N2399      N2421   1.321       .  A
N2399     Co2436   2.091       .  S
C2400      C2438   1.460       .  S
C2400      H2445   1.082       .  S
C2400      N2425   1.343       .  A
H2401      C2442   1.082       .  S
C2402      C2406   1.455       .  S
C2402      H2431   1.082       .  S
C2402      N2426   1.337       .  A
Co2403     N2421   2.079       .  S
Co2403     N2411   2.081       .  S
Co2403     N2443   2.079       .  S
Co2403     N2419   2.079       .  S
Co2403    Cl2447   2.453       .  S
N2404      C2442   1.343       .  A
N2404      N2411   1.320       .  A
N2404     Co2405   2.087       .  S
Co2405     N2425   2.088       .  S
Co2405    Cl2447   2.450       .  S
C2406      N2444   1.350       .  A
N2407      N2414   1.320       .  A
N2407      N2437   1.323       .  A
N2407     Co2440   2.080       .  S
N2408      N2426   1.321       .  A
N2408      N2444   1.326       .  A
N2409      C2438   1.348       .  A
N2409      N2419   1.323       .  A
H2410      C2435   1.082       .  S
N2411      N2432   1.323       .  A
N2412      N2430   1.320       .  A
N2412      N2417   1.326       .  A
C2413      C2441   1.454       .  S
C2413      N2417   1.350       .  A
N2414      C2429   1.344       .  A
C2415      C2418   1.458       .  S
C2415      H2449   1.082       .  S
C2415      N2443   1.338       .  A
C2418      N2439   1.350       .  A
N2419      N2425   1.320       .  A
N2420      C2446   1.343       .  A
N2420      N2422   1.320       .  A
N2421      C2435   1.338       .  A
N2422      N2450   1.324       .  A
N2422     Co2440   2.080       .  S
H2423      C2446   1.082       .  S
H2424      C2441   1.082       .  S
N2426     Co2440   2.075       .  S
N2427      N2439   1.326       .  A
N2427      N2443   1.320       .  A
N2427     Co2436   2.088       .  S
C2428      C2442   1.459       .  S
C2428      N2432   1.349       .  A
C2429      C2448   1.461       .  S
C2429      H2433   1.082       .  S
N2430      C2441   1.336       .  A
N2430     Co2440   2.073       .  S
C2434      C2446   1.461       .  S
C2434      N2450   1.349       .  A
Co2436    Cl2447   2.450       .  S
N2437      C2448   1.349       .  A
C2451      C2488   1.455       .  S
C2451      N2469   1.351       .  A
N2452      N2474   1.320       .  A
C2453      C2491   1.458       .  S
C2453      H2498   1.082       .  S
C2453      N2478   1.342       .  A
H2454      C2495   1.082       .  S
C2455      C2459   1.457       .  S
C2455      H2484   1.082       .  S
Co2456     N2474   2.074   1_655  S
Co2456     N2464   2.079   1_655  S
Co2456     N2496   2.079       .  S
Co2456     N2472   2.082       .  S
N2457      N2464   1.319       .  A
Co2458     N2461   2.084   1_655  S
Co2458     N2465   2.084       .  S
Co2458    Cl2500   2.448       .  S
C2459      N2497   1.349       .  A
N2460      N2467   1.320       .  A
N2460     Co2493   2.077   1_455  S
N2461      N2479   1.320       .  A
N2462      C2491   1.349       .  A
N2462      N2472   1.323       .  A
H2463      C2488   1.082       .  S
N2465      N2483   1.321       .  A
N2465      N2470   1.326       .  A
C2466      C2494   1.458       .  S
C2466      N2470   1.349       .  A
N2467     Co2489   2.091   1_456  S
C2468      C2471   1.456       .  S
C2468      H2502   1.082       .  S
C2468      N2496   1.337       .  A
C2471      N2492   1.351       .  A
N2472      N2478   1.320       .  A
N2473      C2499   1.344       .  A
N2473      N2475   1.320       .  A
N2473     Co2489   2.091   1_556  S
N2475      N2503   1.323       .  A
N2475     Co2493   2.082       .  S
H2476      C2499   1.082       .  S
H2477      C2494   1.082       .  S
N2479     Co2493   2.077   1_455  S
N2480      N2492   1.327       .  A
N2480      N2496   1.321       .  A
C2481      C2495   1.459       .  S
C2481      N2485   1.348       .  A
C2482      C2501   1.462       .  S
C2482      H2486   1.082       .  S
N2483      C2494   1.338       .  A
N2483     Co2493   2.080       .  S
C2487      C2499   1.461       .  S
C2487      N2503   1.349       .  A
Co2489    Cl2500   2.450   1_554  S
N2490      C2501   1.347       .  A
Co2493    Cl2500   2.452       .  S
C2504      C2541   1.456       .  S
C2504      N2522   1.351       .  A
N2505      N2522   1.327       .  A
N2505      N2527   1.321       .  A
C2506      C2544   1.459       .  S
C2506      H2551   1.082       .  S
C2506      N2531   1.341       .  A
H2507      C2548   1.082       .  S
C2508      C2512   1.456       .  S
C2508      H2537   1.082       .  S
C2508      N2532   1.337       .  A
Co2509     N2527   2.077       .  S
Co2509     N2517   2.081       .  S
N2510      C2548   1.342       .  A
N2510      N2517   1.320       .  A
Co2511     N2514   2.085       .  S
Co2511    Cl2553   2.448       .  S
C2512      N2550   1.349       .  A
N2513      N2520   1.320       .  A
N2513      N2543   1.323       .  A
N2513     Co2546   2.079       .  S
N2514      N2532   1.320       .  A
N2514      N2550   1.326       .  A
N2515      C2544   1.349       .  A
N2515      N2525   1.324       .  A
H2516      C2541   1.082       .  S
N2517      N2538   1.323       .  A
N2518      N2536   1.320       .  A
N2518      N2523   1.325       .  A
C2519      C2547   1.456       .  S
C2519      N2523   1.349       .  A
N2520      C2535   1.344       .  A
N2520     Co2542   2.093   1_556  S
C2521      C2524   1.456       .  S
C2521      H2555   1.082       .  S
C2521      N2549   1.337       .  A
C2524      N2545   1.351       .  A
N2525      N2531   1.320       .  A
N2526      C2552   1.344       .  A
N2526      N2528   1.320       .  A
N2527      C2541   1.337       .  A
N2528      N2556   1.323       .  A
H2529      C2552   1.082       .  S
H2530      C2547   1.082       .  S
N2532     Co2546   2.075       .  S
N2533      N2545   1.327       .  A
N2533      N2549   1.320       .  A
C2534      C2548   1.460       .  S
C2534      N2538   1.349       .  A
C2535      C2554   1.462       .  S
C2535      H2539   1.082       .  S
N2536      C2547   1.337       .  A
C2540      C2552   1.462       .  S
C2540      N2556   1.348       .  A
Co2542    Cl2553   2.450   1_554  S
N2543      C2554   1.348       .  A
Co2546    Cl2553   2.451       .  S
C2557      C2558   1.404       .  A
C2557      C2562   1.398       .  A
C2557      H2564   1.084       .  S
C2558      C2559   1.413       .  A
C2559      C2560   1.398       .  A
C2559     Br2566   1.921       .  S
C2560      C2561   1.403       .  A
C2560      H2565   1.084       .  S
C2561      C2562   1.412       .  A
C2562     Br2563   1.922       .  S
C2567      C2568   1.406       .  A
C2567      C2572   1.399       .  A
C2567      H2574   1.083       .  S
C2568      C2569   1.413       .  A
C2569      C2570   1.398       .  A
C2569     Br2576   1.922       .  S
C2570      C2571   1.405       .  A
C2570      H2575   1.084       .  S
C2571      C2572   1.410       .  A
C2572     Br2573   1.920       .  S
C2577      C2578   1.406       .  A
C2577      C2582   1.398       .  A
C2577      H2584   1.083       .  S
C2578      C2579   1.413       .  A
C2579      C2580   1.398       .  A
C2579     Br2586   1.922       .  S
C2580      C2581   1.405       .  A
C2580      H2585   1.084       .  S
C2581      C2582   1.411       .  A
C2582     Br2583   1.921       .  S
C2587      C2588   1.405       .  A
C2587      C2592   1.398       .  A
C2587      H2594   1.083       .  S
C2588      C2589   1.412       .  A
C2589      C2590   1.398       .  A
C2589     Br2596   1.922       .  S
C2590      C2591   1.404       .  A
C2590      H2595   1.084       .  S
C2591      C2592   1.410       .  A
C2592     Br2593   1.920       .  S
C2597      C2598   1.404       .  A
C2597      C2602   1.397       .  A
C2597      H2604   1.084       .  S
C2598      C2599   1.411       .  A
C2599      C2600   1.399       .  A
C2599     Br2606   1.921       .  S
C2600      C2601   1.406       .  A
C2600      H2605   1.084       .  S
C2601      C2602   1.412       .  A
C2602     Br2603   1.922       .  S
C2607      C2608   1.405       .  A
C2607      C2612   1.400       .  A
C2607      H2614   1.083       .  S
C2608      C2609   1.412       .  A
C2609      C2610   1.398       .  A
C2609     Br2616   1.921       .  S
C2610      C2611   1.404       .  A
C2610      H2615   1.084       .  S
C2611      C2612   1.409       .  A
C2612     Br2613   1.918       .  S
