geometry optimzed in LAMMPS
_audit_creation_date              2020-12-01 
_audit_creation_method            'lammps2cif' 
_symmetry_space_group_name_H-M    'P1' 
_symmetry_Int_Tables_number       1 
_symmetry_cell_setting            triclinic 
loop_ 
_symmetry_equiv_pos_as_xyz 
  x,y,z 
_cell_length_a                    39.74400625 
_cell_length_b                    39.454005290201 
_cell_length_c                    39.50315786840742 
_cell_angle_alpha                 89.95504031303233 
_cell_angle_beta                  89.4507415848041 
_cell_angle_gamma                 89.76875004136366 
loop_ 
_atom_site_label 
_atom_site_type_symbol 
_atom_site_fract_x 
_atom_site_fract_y 
_atom_site_fract_z 
_atom_site_charge 
O1          O  0.64302741  0.69300844  0.68261178    -0.81300
C2          C  0.75024632  0.68458680  0.77593618     0.98100
O3          O  0.72224112  0.66987086  0.77848989    -0.70400
O4          O  0.67452379  0.71554895  0.77286245    -0.70800
Al5        Al  0.68246979  0.67353390  0.75133733     1.49000
C6          C  0.66060783  0.74140521  0.76022647     0.93300
O7          O  0.71113839  0.75750072  0.69491866    -0.80200
O8          O  0.73401035  0.66905684  0.66089117    -0.73800
Al9        Al  0.67889331  0.72308320  0.69055010     1.90100
O10         O  0.75719937  0.72721557  0.69053687    -0.72900
O11         O  0.74145398  0.63632759  0.71742549    -0.72700
O12         O  0.76012998  0.69609866  0.74788962    -0.78400
O13         O  0.68855921  0.62966640  0.73258364    -0.76600
O14         O  0.70192798  0.69333916  0.71549680    -1.12700
O15         O  0.63805478  0.67263368  0.73384299    -0.71900
C16         C  0.62598085  0.67818806  0.70506539     0.98800
C17         C  0.74249200  0.75552746  0.69166112     0.95200
Al18       Al  0.74452323  0.68307120  0.70506580     1.55600
O19         O  0.65652405  0.74407010  0.72859294    -0.76500
C20         C  0.71632248  0.61749856  0.72250611     0.99400
C21         C  0.71632831  0.68412101  0.63932605     0.94300
O22         O  0.69693849  0.70821481  0.64781047    -0.81800
O23         O  0.70370434  0.34319644  0.71365847    -0.81300
C24         C  0.63746391  0.24055765  0.77968951     0.98100
O25         O  0.65082699  0.26854266  0.78642315    -0.70400
O26         O  0.69294803  0.31850706  0.78044020    -0.74000
Al27       Al  0.65208694  0.30641572  0.75816258     1.49000
C28         C  0.72227141  0.30639752  0.77823919     0.93300
O29         O  0.72691123  0.24964549  0.70057770    -0.80200
O30         O  0.66447429  0.25481739  0.66086790    -0.73800
Al31       Al  0.71125440  0.29502586  0.70880603     1.90100
O32         O  0.68466633  0.21720545  0.71582570    -0.72900
O33         O  0.61107708  0.27438133  0.69569001    -0.72700
O34         O  0.63013071  0.23259644  0.74954041    -0.78400
O35         O  0.60670571  0.30007880  0.74462905    -0.76600
O36         O  0.67099398  0.28292505  0.72451555    -1.12700
O37         O  0.65159530  0.34648966  0.73262241    -0.71900
C38         C  0.67699716  0.36006891  0.71920424     0.98800
C39         C  0.71520956  0.22081922  0.70820868     0.95200
Al40       Al  0.64930064  0.24769368  0.70688608     1.55600
O41         O  0.73176559  0.29111636  0.75183559    -0.76500
C42         C  0.59434385  0.29179738  0.71663528     0.99400
C43         C  0.68006529  0.27901761  0.64682698     0.94300
O44         O  0.69580837  0.30031281  0.66416384    -0.81800
O45         O  0.25425333  0.24015857  0.68064690    -0.81300
C46         C  0.26472334  0.38148095  0.69619814     0.98100
O47         O  0.23772346  0.36492989  0.69394917    -0.70400
O48         O  0.23713188  0.32825483  0.63950071    -0.74000
Al49       Al  0.22879402  0.31822981  0.68557491     1.49000
C50         C  0.25011779  0.30878305  0.61784322     0.93300
O51         O  0.32466178  0.29721679  0.65189438    -0.80200
O52         O  0.30144981  0.28177156  0.74786764    -0.73800
Al53       Al  0.28826180  0.27064611  0.66767773     1.90100
O54         O  0.33779844  0.31876289  0.70109318    -0.72900
O55         O  0.25921052  0.33269887  0.75538651    -0.72700
O56         O  0.29196845  0.36707605  0.70415836    -0.78400
O57         O  0.21532321  0.31028924  0.73099528    -0.76600
O58         O  0.27084524  0.30417703  0.69254329    -1.12700
O59         O  0.21094110  0.27432583  0.67545513    -0.71900
C60         C  0.22306093  0.24484683  0.67865349     0.98800
C61         C  0.34560511  0.31124329  0.67091602     0.95200
Al62       Al  0.29560490  0.32353346  0.72448181     1.55600
O63         O  0.26604646  0.28257449  0.62676850    -0.76500
C64         C  0.22918985  0.32251077  0.75679080     0.99400
C65         C  0.31271717  0.25472410  0.73487122     0.94300
O66         O  0.31428026  0.25109162  0.70317562    -0.81800
O67         O  0.30208911  0.75227852  0.62950238    -0.81300
C68         C  0.24771471  0.69097352  0.74092575     0.98100
O69         O  0.23816011  0.70276438  0.71291857    -0.70400
O70         O  0.24019772  0.74403641  0.66121640    -0.74000
Al71       Al  0.26235807  0.70181344  0.67163841     1.49000
C72         C  0.24432049  0.77312029  0.67391505     0.93300
O73         O  0.32867842  0.77627606  0.71895744    -0.80200
O74         O  0.36341893  0.71103182  0.71048580    -0.73800
Al75       Al  0.31352895  0.75981291  0.67601317     1.90100
O76         O  0.31460647  0.73591056  0.75425681    -0.72900
O77         O  0.32586335  0.65881942  0.69954431    -0.72700
O78         O  0.27802337  0.68229478  0.74546026    -0.78400
O79         O  0.27556932  0.65528707  0.67792404    -0.76600
O80         O  0.29843088  0.72004086  0.69076063    -1.12700
O81         O  0.28363661  0.69980765  0.62839751    -0.71900
C82         C  0.29554677  0.72544039  0.61339039     0.98800
C83         C  0.32364894  0.76586160  0.74879069     0.95200
Al84       Al  0.31884204  0.69879691  0.72460663     1.55600
O85         O  0.27224072  0.78151551  0.68597929    -0.76500
C86         C  0.30319592  0.64167059  0.68596425     0.99400
C87         C  0.37474253  0.72446207  0.68360475     0.94300
O88         O  0.35616450  0.74205062  0.66483660    -0.81800
O89         O  0.38380403  0.73543781  0.31066303    -0.81300
C90         C  0.28183396  0.70397004  0.21728391     0.98100
O91         O  0.31300463  0.69971455  0.21223893    -0.70400
O92         O  0.34666380  0.75547865  0.22259687    -0.74000
Al93       Al  0.35133295  0.71098851  0.23944584     1.49000
C94         C  0.35286593  0.78286338  0.23762262     0.93300
O95         O  0.29803892  0.77634892  0.30230319    -0.80200
O96         O  0.30871169  0.68142180  0.32965891    -0.73800
Al97       Al  0.34027195  0.75377773  0.30462698     1.90100
O98         O  0.26646862  0.73131434  0.30807801    -0.72900
O99         O  0.30779930  0.65450701  0.26905294    -0.72700
O100        O  0.27019247  0.70783879  0.24679926    -0.78400
O101        O  0.35908825  0.66498022  0.25163946    -0.76600
O102        O  0.32781245  0.72022485  0.27720843    -1.12700
O103        O  0.39440379  0.72022160  0.25822664    -0.71900
C104        C  0.40413234  0.72569427  0.28804436     0.98800
C105        C  0.27007316  0.76291949  0.30918297     0.95200
Al106      Al  0.29148422  0.69582103  0.28739972     1.55600
O107        O  0.35526284  0.78380419  0.26943260    -0.76500
C108        C  0.33640045  0.64419989  0.25949505     0.99400
C109        C  0.31820690  0.70123901  0.35264495     0.94300
O110        O  0.32769632  0.73103128  0.34563972    -0.81800
O111        O  0.71490208  0.71273447  0.35841443    -0.81300
C112        C  0.80366910  0.65617646  0.26460832     0.98100
O113        O  0.80474595  0.66742978  0.29424071    -0.70400
O114        O  0.78787946  0.71129020  0.34045353    -0.74000
Al115      Al  0.77071999  0.66689673  0.32774565     1.49000
C116        C  0.78121391  0.74084481  0.32955614     0.93300
O117        O  0.71153805  0.73694855  0.26562246    -0.80200
O118        O  0.68340538  0.67221087  0.26027448    -0.73800
Al119      Al  0.71590171  0.72017280  0.31082146     1.90100
O120        O  0.74131426  0.70166752  0.23466668    -0.72900
O121        O  0.71974946  0.62180491  0.28198880    -0.72700
O122        O  0.77601902  0.64804735  0.25160813    -0.78400
O123        O  0.75964982  0.61930563  0.32014583    -0.76600
O124        O  0.73930352  0.68312052  0.29986688    -1.12700
O125        O  0.74121413  0.66455157  0.36557518    -0.71900
C126        C  0.72286343  0.68807294  0.37689058     0.98800
C127        C  0.72675274  0.72982616  0.23830390     0.95200
Al128      Al  0.73094352  0.66254864  0.26059502     1.55600
O129        O  0.75460757  0.74676384  0.31359543    -0.76500
C130        C  0.73591305  0.60551457  0.30387081     0.99400
C131        C  0.66343245  0.68258448  0.28311335     0.94300
O132        O  0.67442125  0.69722736  0.30907753    -0.81800
O133        O  0.35141764  0.32689714  0.26575834    -0.81300
C134        C  0.23066407  0.26245691  0.30687760     0.98100
O135        O  0.26013985  0.25474474  0.31628426    -0.70400
O136        O  0.30002365  0.24210108  0.26439412    -0.74000
Al137      Al  0.30417329  0.27083099  0.30218483     1.49000
C138        C  0.31398880  0.24681152  0.23607917     0.93300
O139        O  0.27237778  0.31640060  0.21548471    -0.80200
O140        O  0.27613627  0.36978022  0.29889528    -0.73800
Al141      Al  0.31079271  0.32078903  0.24264774     1.90100
O142        O  0.23633065  0.34062967  0.25035020    -0.72900
O143        O  0.26095321  0.32176967  0.34188377    -0.72700
O144        O  0.22516227  0.28999618  0.29179383    -0.78400
O145        O  0.30998316  0.29600796  0.34207179    -0.76600
O146        O  0.28915685  0.30674566  0.27967056    -1.12700
O147        O  0.35162688  0.27869975  0.29335895    -0.71900
C148        C  0.36687323  0.30461650  0.28225625     0.98800
C149        C  0.24420137  0.32998362  0.22112484     0.95200
Al150      Al  0.25269881  0.32878546  0.29445146     1.55600
O151        O  0.32356501  0.27609636  0.22713909    -0.76500
C152        C  0.28705941  0.31210071  0.35726229     0.99400
C153        C  0.29278175  0.38444020  0.27601797     0.94300
O154        O  0.30302824  0.36845325  0.25012956    -0.81800
O155        O  0.71780964  0.27475327  0.37499530    -0.81300
C156        C  0.67582794  0.23829488  0.24348698     0.98100
O157        O  0.66941150  0.22259049  0.27060171    -0.70400
O158        O  0.72136997  0.20236315  0.30564753    -0.74000
Al159      Al  0.68277349  0.22897011  0.31655731     1.49000
C160        C  0.74842990  0.20393485  0.32177544     0.93300
O161        O  0.76757702  0.27907745  0.29271455    -0.80200
O162        O  0.68798279  0.33534599  0.31226105    -0.73800
Al163      Al  0.74133530  0.27657197  0.33297777     1.90100
O164        O  0.73262056  0.31093189  0.26336618    -0.72900
O165        O  0.64152870  0.29194244  0.29145540    -0.72700
O166        O  0.68746602  0.26780348  0.24411680    -0.78400
O167        O  0.64195333  0.25007640  0.32815530    -0.76600
O168        O  0.70399823  0.26823940  0.30987002    -1.12700
O169        O  0.69119440  0.22712117  0.36450074    -0.71900
C170        C  0.70095033  0.24951092  0.38510405     0.98800
C171        C  0.76143743  0.29759918  0.26736263     0.95200
Al172      Al  0.68857746  0.29887468  0.28041028     1.55600
O173        O  0.75601953  0.23061520  0.33742107    -0.76500
C174        C  0.62654975  0.27326371  0.31289469     0.99400
C175        C  0.71335141  0.34489600  0.32856391     0.94300
O176        O  0.73684367  0.32447116  0.33467684    -0.81800
N177        N  0.01381544  0.04375297  0.37127215    -0.36100
N178        N  0.96707932  0.98634252  0.37845024    -0.56700
N179        N  0.02232331  0.93904313  0.37239058    -0.36100
N180        N  0.06784147  0.99623880  0.36140090    -0.56700
C181        C  0.98374828  0.05889865  0.36606359     0.27500
C182        C  0.03777543  0.06427280  0.35780902     0.27500
C183        C  0.99599570  0.91760801  0.36999619     0.27500
C184        C  0.04952557  0.92287478  0.35933496     0.27500
C185        C  0.94610173  0.01235725  0.38591253     0.36100
C186        C  0.95084247  0.95763506  0.38765003     0.36100
C187        C  0.08597980  0.02504595  0.36350664     0.36100
C188        C  0.09018052  0.97047719  0.36305821     0.36100
C189        C  0.98865570  0.08949366  0.34939999    -0.21400
C190        C  0.02271482  0.09276033  0.34398412    -0.21400
C191        C  0.00678525  0.88713144  0.35607033    -0.21400
C192        C  0.04057969  0.89054201  0.34913817    -0.21400
C193        C  0.91650143  0.00012245  0.40016553    -0.22500
C194        C  0.91944749  0.96541164  0.40107783    -0.22400
C195        C  0.11986557  0.01747615  0.36710343    -0.22500
C196        C  0.12253646  0.98288385  0.36662511    -0.22400
C197        C  0.95210341  0.04657670  0.37704696    -0.17800
C198        C  0.07283482  0.05783309  0.35809887    -0.17800
C199        C  0.08239623  0.93618133  0.35756875    -0.17800
C200        C  0.96278277  0.92451837  0.38101876    -0.17800
H201        H  0.96960959  0.10744991  0.34152199     0.15100
H202        H  0.03481846  0.11355471  0.33088130     0.15100
H203        H  0.99186157  0.86481065  0.35117339     0.15100
H204        H  0.05671049  0.87134046  0.33795562     0.15100
H205        H  0.89473502  0.01460221  0.40837958     0.13400
H206        H  0.90043298  0.94788019  0.40996687     0.13400
H207        H  0.14064163  0.03501030  0.36891763     0.13400
H208        H  0.14573661  0.96849182  0.36796874     0.13400
H209        H  0.01783802  0.02225574  0.38600076     0.26700
H210        H  0.02242673  0.96214724  0.38501889     0.26700
N211        N  0.03280420  0.99931113  0.65429507    -0.36100
N212        N  0.98737706  0.94671205  0.67705843    -0.56700
N213        N  0.93477303  0.99736513  0.68860811    -0.36100
N214        N  0.98146710  0.04995990  0.66977491    -0.56700
C215        C  0.05404941  0.97252095  0.65547195     0.27500
C216        C  0.05181624  0.02763723  0.65497264     0.27500
C217        C  0.92180228  0.97031444  0.70509642     0.27500
C218        C  0.91804628  0.02510929  0.69992074     0.27500
C219        C  0.01142235  0.92725406  0.66230573     0.36100
C220        C  0.96069067  0.92626518  0.68239830     0.36100
C221        C  0.00521811  0.06993161  0.65555745     0.36100
C222        C  0.95310926  0.06885306  0.67174770     0.36100
C223        C  0.08699953  0.98385334  0.65621878    -0.21400
C224        C  0.08560262  0.01867893  0.65593706    -0.21400
C225        C  0.89657048  0.98093895  0.72717667    -0.21400
C226        C  0.89421564  0.01557393  0.72393597    -0.21400
C227        C  0.99998770  0.89438935  0.65827661    -0.22500
C228        C  0.96785342  0.89372066  0.67110995    -0.22400
C229        C  0.99197345  0.10168966  0.64855787    -0.22500
C230        C  0.95885682  0.10092123  0.65851217    -0.22400
C231        C  0.04444061  0.93816713  0.65489332    -0.17800
C232        C  0.03949838  0.06118475  0.65247874    -0.17800
C233        C  0.92315494  0.05857715  0.68819158    -0.17800
C234        C  0.93056709  0.93615019  0.69880842    -0.17800
H235        H  0.10970318  0.96863582  0.65695829     0.15100
H236        H  0.10711606  0.03539267  0.65598920     0.15100
H237        H  0.88131380  0.96534041  0.74377923     0.15100
H238        H  0.87697010  0.03182754  0.73780200     0.15100
H239        H  0.01346976  0.87303711  0.64747971     0.13400
H240        H  0.95165751  0.87174486  0.67197139     0.13400
H241        H  0.00496310  0.12336859  0.63798099     0.13400
H242        H  0.94133082  0.12191116  0.65692358     0.13400
H243        H  0.00712369  0.99818992  0.64978024     0.26700
H244        H  0.95125883  0.99646044  0.66801940     0.26700
N245        N  0.37921969  0.02014471  0.92999589    -0.36100
N246        N  0.38457903  0.96772319  0.98084085    -0.56700
N247        N  0.38632323  0.01924572  0.03355474    -0.36100
N248        N  0.38461475  0.07174106  0.98227095    -0.56700
C249        C  0.38589213  0.99285971  0.91028213     0.27500
C250        C  0.38489429  0.04807602  0.91093834     0.27500
C251        C  0.39607101  0.99157280  0.05117277     0.27500
C252        C  0.39491075  0.04671903  0.05197091     0.27500
C253        C  0.37787064  0.94795593  0.95379920     0.36100
C254        C  0.38239662  0.94755503  0.00840509     0.36100
C255        C  0.37612445  0.09145937  0.95570309     0.36100
C256        C  0.37988105  0.09100087  0.01020231     0.36100
C257        C  0.39567308  0.00366591  0.87822573    -0.21400
C258        C  0.39518196  0.03852190  0.87871212    -0.21400
C259        C  0.41110572  0.00157576  0.08107508    -0.21400
C260        C  0.41032838  0.03643705  0.08159290    -0.21400
C261        C  0.37175392  0.91496550  0.96430249    -0.22500
C262        C  0.37431815  0.91479579  0.99886711    -0.22400
C263        C  0.36614515  0.12332597  0.96678911    -0.22500
C264        C  0.36851029  0.12302757  0.00132718    -0.22400
C265        C  0.38076081  0.95866876  0.91971325    -0.17800
C266        C  0.37904765  0.08183041  0.92144754    -0.17800
C267        C  0.38739591  0.08067072  0.04345339    -0.17800
C268        C  0.39013506  0.95758608  0.04173055    -0.17800
H269        H  0.40212375  0.98815927  0.85652189     0.15100
H270        H  0.40136426  0.05493654  0.85761126     0.15100
H271        H  0.42144129  0.98544234  0.10058630     0.15100
H272        H  0.41993274  0.05238097  0.10154696     0.15100
H273        H  0.36692338  0.89293163  0.94887376     0.13400
H274        H  0.37137732  0.89279958  0.01500092     0.13400
H275        H  0.35801410  0.14463425  0.95161200     0.13400
H276        H  0.36254280  0.14404979  0.01794130     0.13400
H277        H  0.36754456  0.01979686  0.95364711     0.26700
H278        H  0.37116633  0.01930583  0.01224933     0.26700
N279        N  0.97869242  0.37204584  0.05308633    -0.36100
N280        N  0.03182650  0.36462122  0.00151751    -0.56700
N281        N  0.98043979  0.35494543  0.95127139    -0.36100
N282        N  0.92782966  0.35812336  0.00277920    -0.56700
C283        C  0.00631033  0.36983650  0.07275838     0.27500
C284        C  0.95146614  0.36686558  0.07333934     0.27500
C285        C  0.00859087  0.34689174  0.93346088     0.27500
C286        C  0.95412499  0.34170848  0.93439111     0.27500
C287        C  0.05011937  0.37636208  0.02757924     0.36100
C288        C  0.05093505  0.36875258  0.97331628     0.36100
C289        C  0.90764383  0.36781110  0.02876439     0.36100
C290        C  0.90850408  0.35771986  0.97482549     0.36100
C291        C  0.99648036  0.36371111  0.10599379    -0.21400
C292        C  0.96197157  0.36218474  0.10642122    -0.21400
C293        C  0.00013683  0.32820110  0.90511272    -0.21400
C294        C  0.96577275  0.32481237  0.90575701    -0.21400
C295        C  0.08105142  0.38789914  0.01589527    -0.22500
C296        C  0.08152118  0.38316146  0.98144272    -0.22400
C297        C  0.87523308  0.37339573  0.01733415    -0.22500
C298        C  0.87585588  0.36736921  0.98307441    -0.22400
C299        C  0.04001495  0.37487244  0.06197130    -0.17800
C300        C  0.91739247  0.36819510  0.06303000    -0.17800
C301        C  0.91977542  0.34679404  0.94253105    -0.17800
C302        C  0.04139946  0.35809341  0.94071242    -0.17800
H303        H  0.01242974  0.36094523  0.12788129     0.15100
H304        H  0.94657529  0.35838180  0.12880537     0.15100
H305        H  0.01697911  0.31831600  0.88577886     0.15100
H306        H  0.95099250  0.31182624  0.88693673     0.15100
H307        H  0.10116088  0.39869651  0.03063126     0.13400
H308        H  0.10205034  0.38951366  0.96443768     0.13400
H309        H  0.85334390  0.38070872  0.03215268     0.13400
H310        H  0.85456503  0.36955321  0.96634806     0.13400
H311        H  0.97832501  0.38000504  0.02804322     0.26700
H312        H  0.97893466  0.37226963  0.97104175     0.26700
N313        N  0.63351111  0.03459669  0.00762435    -0.36100
N314        N  0.64915030  0.98883227  0.06259818    -0.56700
N315        N  0.65676097  0.93348923  0.01505512    -0.36100
N316        N  0.63652485  0.97802740  0.96025711    -0.56700
C317        C  0.62446419  0.05376480  0.03462693     0.27500
C318        C  0.61821197  0.04795281  0.98024501     0.27500
C319        C  0.65543829  0.91647052  0.04477350     0.27500
C320        C  0.64959207  0.91100971  0.99037964     0.27500
C321        C  0.65097859  0.01868148  0.07916461     0.36100
C322        C  0.66314140  0.96540003  0.08311500     0.36100
C323        C  0.63509042  0.00420487  0.93828824     0.36100
C324        C  0.64732442  0.95095395  0.94219670     0.36100
C325        C  0.60312042  0.07957943  0.02431209    -0.21400
C326        C  0.59915174  0.07589718  0.98994524    -0.21400
C327        C  0.64703981  0.88289362  0.03884254    -0.21400
C328        C  0.64371164  0.87938220  0.00444812    -0.21400
C329        C  0.66640502  0.01423285  0.11020126    -0.22500
C330        C  0.67411944  0.98043828  0.11270223    -0.22400
C331        C  0.64499584  0.99372401  0.90618725    -0.22500
C332        C  0.65284297  0.95993779  0.90870177    -0.22400
C333        C  0.63620018  0.04919592  0.06798197    -0.17800
C334        C  0.62311431  0.03687908  0.94649932    -0.17800
C335        C  0.65020018  0.91787814  0.95538701    -0.17800
C336        C  0.66326587  0.93025610  0.07677991    -0.17800
H337        H  0.59162020  0.09908302  0.03986363     0.15100
H338        H  0.58409003  0.09208710  0.97390901     0.15100
H339        H  0.64368820  0.86286960  0.05727500     0.15100
H340        H  0.63753412  0.85620447  0.99128520     0.15100
H341        H  0.67116108  0.03324132  0.12928999     0.13400
H342        H  0.68598258  0.96828100  0.13409006     0.13400
H343        H  0.64643920  0.00879009  0.88331740     0.13400
H344        H  0.66149834  0.94386933  0.88818512     0.13400
H345        H  0.65204606  0.01589906  0.00718943     0.26700
H346        H  0.66577722  0.95796440  0.01141125     0.26700
N347        N  0.01702200  0.70814148  0.04788925    -0.36100
N348        N  0.06585178  0.72551925  0.99566347    -0.56700
N349        N  0.01514159  0.71372145  0.94508213    -0.36100
N350        N  0.96534834  0.69999442  0.99738135    -0.56700
C351        C  0.04122541  0.72326246  0.06632019     0.27500
C352        C  0.98877714  0.70744307  0.06724944     0.27500
C353        C  0.03988968  0.72751227  0.92592971     0.27500
C354        C  0.98647188  0.71594108  0.92705567     0.27500
C355        C  0.08649729  0.72489031  0.02258859     0.36100
C356        C  0.08589114  0.72634619  0.96788182     0.36100
C357        C  0.94952750  0.68577568  0.02420000     0.36100
C358        C  0.94772730  0.69098338  0.96978002     0.36100
C359        C  0.02817875  0.73239756  0.09770898    -0.21400
C360        C  0.99495994  0.72276053  0.09814975    -0.21400
C361        C  0.02690638  0.73861320  0.89541747    -0.21400
C362        C  0.99310792  0.73146762  0.89618059    -0.21400
C363        C  0.11981327  0.72624591  0.01179856    -0.22500
C364        C  0.11940396  0.72681563  0.97710365    -0.22400
C365        C  0.92174915  0.66759957  0.01356651    -0.22500
C366        C  0.92058360  0.67097911  0.97902602    -0.22400
C367        C  0.07540313  0.72597944  0.05665057    -0.17800
C368        C  0.95836824  0.69140185  0.05821971    -0.17800
C369        C  0.95515814  0.70192955  0.93657391    -0.17800
C370        C  0.07425802  0.72845498  0.93439976    -0.17800
H371        H  0.04125016  0.74448282  0.11831803     0.15100
H372        H  0.97750325  0.72639367  0.11903099     0.15100
H373        H  0.04044925  0.75045437  0.87468371     0.15100
H374        H  0.97554230  0.73661091  0.87602612     0.15100
H375        H  0.14219241  0.72741331  0.02709536     0.13400
H376        H  0.14126672  0.72814253  0.96061698     0.13400
H377        H  0.90401712  0.65354770  0.02902222     0.13400
H378        H  0.90194313  0.65990167  0.96264079     0.13400
H379        H  0.02068685  0.69507770  0.02527377     0.26700
H380        H  0.01852340  0.69976393  0.96711182     0.26700
C381        C  0.64222048  0.13266980  0.11781869     0.19200
C382        C  0.66808312  0.15668143  0.11949355    -0.18900
C383        C  0.67122612  0.17746907  0.14796855    -0.11200
C384        C  0.64818870  0.17481115  0.17514775     0.21400
C385        C  0.62134205  0.15205015  0.17258270    -0.20500
C386        C  0.61814382  0.13142078  0.14411930    -0.11400
C387        C  0.65276408  0.19312188  0.20757274    -0.15500
C388        C  0.67012071  0.22211286  0.21040508    -0.29400
C389        C  0.64221465  0.10790395  0.08955306    -0.03600
C390        C  0.63070506  0.07615732  0.09367655    -0.40200
H391        H  0.68683473  0.15822864  0.09947072     0.12600
H392        H  0.69258470  0.19430379  0.14920493     0.12200
H393        H  0.60310064  0.14975521  0.19300579     0.11600
H394        H  0.59713459  0.11410661  0.14311138     0.11900
H395        H  0.64112397  0.18226864  0.23009676     0.14600
H396        H  0.68013740  0.23464861  0.18804549     0.13400
H397        H  0.65518685  0.11450789  0.06612305     0.11100
H398        H  0.62081434  0.06825071  0.11813019     0.13100
C399        C  0.85881398  0.33748930  0.13575220     0.19200
C400        C  0.85852603  0.30768639  0.15521046    -0.18900
C401        C  0.83484794  0.30305066  0.18114044    -0.11200
C402        C  0.81078203  0.32829511  0.18839433     0.21400
C403        C  0.81072484  0.35798371  0.16876902    -0.20500
C404        C  0.83455495  0.36271300  0.14283663    -0.11400
C405        C  0.78448833  0.32370814  0.21504674    -0.15500
C406        C  0.78847318  0.30333773  0.24211706    -0.29400
C407        C  0.88471015  0.34049020  0.10839719    -0.03600
C408        C  0.89033909  0.36825992  0.08936651    -0.40200
H409        H  0.87665444  0.28768272  0.15020855     0.12600
H410        H  0.83506249  0.27930947  0.19484290     0.12200
H411        H  0.79219452  0.37765267  0.17358664     0.11600
H412        H  0.83346101  0.38596109  0.12844113     0.11900
H413        H  0.76123003  0.33803199  0.21250444     0.14600
H414        H  0.81218655  0.29027012  0.24606584     0.13400
H415        H  0.90080328  0.31854228  0.10392518     0.11100
H416        H  0.87481207  0.39075740  0.09176127     0.13100
C417        C  0.86914388  0.09294658  0.35735866     0.19200
C418        C  0.84928197  0.09408471  0.32821382    -0.18900
C419        C  0.82499879  0.11947728  0.32416683    -0.11200
C420        C  0.81987505  0.14400638  0.34955578     0.21400
C421        C  0.83909384  0.14218719  0.37912773    -0.20500
C422        C  0.86333128  0.11686018  0.38314017    -0.11400
C423        C  0.79618446  0.17287790  0.34577199    -0.15500
C424        C  0.77089290  0.17414394  0.32335398    -0.29400
C425        C  0.89590227  0.06681929  0.35987657    -0.03600
C426        C  0.92385783  0.07126490  0.37820379    -0.40200
H427        H  0.85323375  0.07583455  0.30807314     0.12600
H428        H  0.81116863  0.12026823  0.30075440     0.12200
H429        H  0.83548767  0.16060803  0.39918066     0.11600
H430        H  0.87736041  0.11611117  0.40646358     0.11900
H431        H  0.79938972  0.19403956  0.36305021     0.14600
H432        H  0.76555584  0.15280321  0.30701912     0.13400
H433        H  0.89382628  0.04423807  0.34428393     0.11100
H434        H  0.92816524  0.09511497  0.39109831     0.13100
C435        C  0.53192361  0.29413848  0.30320904     0.19200
C436        C  0.51334101  0.31110894  0.27834973    -0.18900
C437        C  0.47828362  0.30901965  0.27776741    -0.11200
C438        C  0.46069799  0.29009525  0.30239972     0.21400
C439        C  0.47910018  0.27332745  0.32750206    -0.20500
C440        C  0.51425765  0.27547895  0.32816725    -0.11400
C441        C  0.42347575  0.28610609  0.30143026    -0.15500
C442        C  0.40332563  0.30920835  0.28684944    -0.29400
C443        C  0.56943687  0.29532578  0.30066742    -0.03600
C444        C  0.59014987  0.27658756  0.31985503    -0.40200
H445        H  0.52606622  0.32542149  0.25865727     0.12600
H446        H  0.46527299  0.32140501  0.25724165     0.12200
H447        H  0.46621727  0.25844964  0.34666238     0.11600
H448        H  0.52705045  0.26216382  0.34817136     0.11900
H449        H  0.41245732  0.26363924  0.31289355     0.14600
H450        H  0.41391665  0.33252205  0.27690235     0.13400
H451        H  0.58042511  0.31051467  0.28045641     0.11100
H452        H  0.58023515  0.26045779  0.33970580     0.13100
C453        C  0.11823286  0.35660609  0.11641874     0.19200
C454        C  0.14113262  0.32946501  0.11695953    -0.18900
C455        C  0.16475728  0.32665120  0.14270427    -0.11200
C456        C  0.16617431  0.35121466  0.16841048     0.21400
C457        C  0.14330188  0.37832664  0.16801352    -0.20500
C458        C  0.11975733  0.38127466  0.14212745    -0.11400
C459        C  0.19050483  0.34868335  0.19645163    -0.15500
C460        C  0.22053255  0.33328178  0.19294912    -0.29400
C461        C  0.09325581  0.35776331  0.08873434    -0.03600
C462        C  0.06594304  0.37798583  0.08864113    -0.40200
H463        H  0.14045518  0.31003877  0.09760757     0.12600
H464        H  0.18130637  0.30481490  0.14274533     0.12200
H465        H  0.14390774  0.39750315  0.18761406     0.11600
H466        H  0.10319178  0.40303589  0.14245536     0.11900
H467        H  0.18386129  0.36067018  0.22037969     0.14600
H468        H  0.22834445  0.32294949  0.16864828     0.13400
H469        H  0.09647775  0.33976403  0.06810272     0.11100
H470        H  0.06029552  0.39445883  0.10988133     0.13100
C471        C  0.36291849  0.13326554  0.12200958     0.19200
C472        C  0.33356502  0.13322158  0.14199545    -0.18900
C473        C  0.32589879  0.16052899  0.16323032    -0.11200
C474        C  0.34781332  0.18837930  0.16529647     0.21400
C475        C  0.37747228  0.18815583  0.14575578    -0.20500
C476        C  0.38514770  0.16082067  0.12451910    -0.11400
C477        C  0.34028514  0.21837410  0.18682192    -0.15500
C478        C  0.31971382  0.21726562  0.21399770    -0.29400
C479        C  0.36871976  0.10467380  0.09820414    -0.03600
C480        C  0.38785371  0.10724310  0.07008560    -0.40200
H481        H  0.31599157  0.11236536  0.14048908     0.12600
H482        H  0.30236925  0.15999373  0.17717315     0.12200
H483        H  0.39485292  0.20919267  0.14701125     0.11600
H484        H  0.40852100  0.16143868  0.11030928     0.11900
H485        H  0.35340583  0.24182660  0.18101600     0.14600
H486        H  0.30811514  0.19361605  0.22170016     0.13400
H487        H  0.35412478  0.08171154  0.10206217     0.11100
H488        H  0.40030926  0.13090275  0.06397419     0.13100
C489        C  0.12461911  0.14073706  0.35322453     0.19200
C490        C  0.11748077  0.17544205  0.34990161    -0.18900
C491        C  0.14326322  0.19853090  0.34239771    -0.11200
C492        C  0.17679653  0.18725246  0.33864023     0.21400
C493        C  0.18393319  0.15273468  0.34315703    -0.20500
C494        C  0.15821073  0.12970387  0.35018707    -0.11400
C495        C  0.20524574  0.21058012  0.33119871    -0.15500
C496        C  0.20185208  0.23989655  0.31417790    -0.29400
C497        C  0.09710193  0.11641699  0.36093852    -0.03600
C498        C  0.09743698  0.08472371  0.34835824    -0.40200
H499        H  0.09188559  0.18461611  0.35276628     0.12600
H500        H  0.13694037  0.22513133  0.34018880     0.12200
H501        H  0.20956534  0.14347649  0.34100863     0.11600
H502        H  0.16479400  0.10331162  0.35383384     0.11900
H503        H  0.23024554  0.20252009  0.33880208     0.14600
H504        H  0.17733133  0.24771365  0.30508127     0.13400
H505        H  0.07645180  0.12466405  0.37719061     0.11100
H506        H  0.11795602  0.07723205  0.33157487     0.13100
C507        C  0.73047878  0.51149437  0.33136101     0.19200
C508        C  0.75437643  0.48575439  0.33621336    -0.18900
C509        C  0.74488126  0.45160489  0.33545283    -0.11200
C510        C  0.71103142  0.44244435  0.33031991     0.21400
C511        C  0.68699917  0.46823173  0.32656253    -0.20500
C512        C  0.69647556  0.50234312  0.32743880    -0.11400
C513        C  0.70065733  0.40647104  0.32582153    -0.15500
C514        C  0.71782839  0.38041555  0.33925684    -0.29400
C515        C  0.74170793  0.54749234  0.32916451    -0.03600
C516        C  0.72583983  0.56989496  0.30918995    -0.40200
H517        H  0.78068078  0.49203773  0.33926886     0.12600
H518        H  0.76440526  0.43255574  0.33745796     0.12200
H519        H  0.66082069  0.46195003  0.32260234     0.11600
H520        H  0.67709299  0.52146864  0.32477585     0.11900
H521        H  0.67931385  0.40131010  0.30964417     0.14600
H522        H  0.73859582  0.38540198  0.35615982     0.13400
H523        H  0.76448653  0.55500775  0.34211540     0.11100
H524        H  0.70451469  0.56150040  0.29445302     0.13100
C525        C  0.91539950  0.65899930  0.13969702     0.19200
C526        C  0.92126358  0.66578023  0.17391407    -0.18900
C527        C  0.89585037  0.66062946  0.19808438    -0.11200
C528        C  0.86422505  0.64800483  0.18831970     0.21400
C529        C  0.85922687  0.63965978  0.15420246    -0.20500
C530        C  0.88447491  0.64513768  0.13011176    -0.11400
C531        C  0.83496164  0.64502816  0.21182985    -0.15500
C532        C  0.83510544  0.65388926  0.24468640    -0.29400
C533        C  0.94138514  0.66741858  0.11415006    -0.03600
C534        C  0.93316938  0.68230636  0.08473788    -0.40200
H535        H  0.94510793  0.67627077  0.18174353     0.12600
H536        H  0.90115662  0.66730835  0.22396911     0.12200
H537        H  0.83533430  0.62962997  0.14594306     0.11600
H538        H  0.87969845  0.63883635  0.10391892     0.11900
H539        H  0.81130883  0.63702671  0.20083711     0.14600
H540        H  0.85793171  0.66203778  0.25693325     0.13400
H541        H  0.96760108  0.66287359  0.12028808     0.11100
H542        H  0.90682765  0.68714471  0.07932475     0.13100
C543        C  0.69498832  0.85628679  0.13270317     0.19200
C544        C  0.72212524  0.83344102  0.13085132    -0.18900
C545        C  0.72741309  0.80967094  0.15656004    -0.11200
C546        C  0.70538541  0.80822271  0.18459479     0.21400
C547        C  0.67840789  0.83113503  0.18651733    -0.20500
C548        C  0.67299093  0.85466822  0.16080157    -0.11400
C549        C  0.70943192  0.78362603  0.21260494    -0.15500
C550        C  0.72646896  0.75419962  0.21002773    -0.29400
C551        C  0.68980370  0.88040992  0.10432129    -0.03600
C552        C  0.66890666  0.90727125  0.10604070    -0.40200
H553        H  0.73937014  0.83404208  0.10945470     0.12600
H554        H  0.74892717  0.79291642  0.15450149     0.12200
H555        H  0.66101099  0.83044149  0.20779746     0.11600
H556        H  0.65111988  0.87087260  0.16299531     0.11900
H557        H  0.69601531  0.78927345  0.23605957     0.14600
H558        H  0.73903881  0.74702101  0.18660973     0.13400
H559        H  0.70387580  0.87604248  0.08098134     0.11100
H560        H  0.65667628  0.91403595  0.12972191     0.13100
C561        C  0.89905372  0.85596272  0.35524222     0.19200
C562        C  0.87377916  0.85481252  0.33079393    -0.18900
C563        C  0.85321624  0.82638842  0.32778440    -0.11200
C564        C  0.85732448  0.79822028  0.34935058     0.21400
C565        C  0.88337671  0.79886120  0.37309976    -0.20500
C566        C  0.90399278  0.82746594  0.37616567    -0.11400
C567        C  0.83527797  0.76777872  0.34692199    -0.15500
C568        C  0.80376308  0.76990784  0.33500566    -0.29400
C569        C  0.92086461  0.88647060  0.35646822    -0.03600
C570        C  0.93902976  0.89562998  0.38346036    -0.40200
H571        H  0.86995008  0.87603531  0.31381526     0.12600
H572        H  0.83459003  0.82646916  0.30801294     0.12200
H573        H  0.88763215  0.77726821  0.38948207     0.11600
H574        H  0.92407782  0.82684250  0.39443506     0.11900
H575        H  0.84491406  0.74344645  0.35544400     0.14600
H576        H  0.79358992  0.79445020  0.32796696     0.13400
H577        H  0.92212614  0.90234081  0.33396357     0.11100
H578        H  0.93808343  0.88126685  0.40685961     0.13100
C579        C  0.31789573  0.47678534  0.25958236     0.19200
C580        C  0.34644821  0.49447581  0.24825655    -0.18900
C581        C  0.34737772  0.52997059  0.24990409    -0.11200
C582        C  0.31943701  0.54817248  0.26261685     0.21400
C583        C  0.29084596  0.53029763  0.27332544    -0.20500
C584        C  0.28995744  0.49516246  0.27170129    -0.11400
C585        C  0.31771692  0.58561266  0.26466865    -0.15500
C586        C  0.34263753  0.60737993  0.25696681    -0.29400
C587        C  0.31672825  0.43932273  0.25738951    -0.03600
C588        C  0.29847876  0.42098982  0.27953037    -0.40200
H589        H  0.36807332  0.48080136  0.23834141     0.12600
H590        H  0.36975453  0.54276846  0.24098940     0.12200
H591        H  0.26877941  0.54360723  0.28277713     0.11600
H592        H  0.26696834  0.48254814  0.27931145     0.11900
H593        H  0.29369820  0.59599309  0.27315956     0.14600
H594        H  0.36721215  0.59860643  0.24860634     0.13400
H595        H  0.33074698  0.42674241  0.23723128     0.11100
H596        H  0.28640528  0.43333383  0.30102775     0.13100
C597        C  0.56786148  0.69470398  0.29397064     0.19200
C598        C  0.54917925  0.71941913  0.31148973    -0.18900
C599        C  0.51480003  0.72338184  0.30586101    -0.11200
C600        C  0.49817087  0.70226789  0.28281554     0.21400
C601        C  0.51673410  0.67727383  0.26550217    -0.20500
C602        C  0.55121517  0.67330626  0.27113323    -0.11400
C603        C  0.46194701  0.70659276  0.27517252    -0.15500
C604        C  0.43979297  0.72112865  0.29671312    -0.29400
C605        C  0.60459826  0.69283375  0.30001689    -0.03600
C606        C  0.62691583  0.67897461  0.27823065    -0.40200
H607        H  0.56140859  0.73633206  0.32907866     0.12600
H608        H  0.50168459  0.74362216  0.31895223     0.12200
H609        H  0.50448284  0.66070745  0.24760748     0.11600
H610        H  0.56449670  0.65340938  0.25769915     0.11900
H611        H  0.45306383  0.69672345  0.25118823     0.14600
H612        H  0.44755195  0.72917607  0.32168919     0.13400
H613        H  0.61393725  0.70587554  0.32224749     0.11100
H614        H  0.61866004  0.66707073  0.25503844     0.13100
C615        C  0.20131450  0.71188830  0.16462355     0.19200
C616        C  0.17204165  0.73155919  0.16827546    -0.18900
C617        C  0.14690419  0.73054425  0.14388941    -0.11200
C618        C  0.15055486  0.70960135  0.11529993     0.21400
C619        C  0.17975530  0.68975217  0.11173359    -0.20500
C620        C  0.20498488  0.69088272  0.13607972    -0.11400
C621        C  0.12409320  0.70671989  0.08933537    -0.15500
C622        C  0.10055939  0.73057426  0.08369834    -0.29400
C623        C  0.22620700  0.71239970  0.19223916    -0.03600
C624        C  0.25877981  0.70378075  0.18832438    -0.40200
H625        H  0.16845387  0.74756490  0.19030362     0.12600
H626        H  0.12439565  0.74547447  0.14813129     0.12200
H627        H  0.18296088  0.67313140  0.09010964     0.11600
H628        H  0.22672308  0.67457722  0.13289577     0.11900
H629        H  0.12467757  0.68446515  0.07309538     0.14600
H630        H  0.09905238  0.75335594  0.09895666     0.13400
H631        H  0.21731157  0.72100047  0.21690372     0.11100
H632        H  0.26891905  0.69700936  0.16363406     0.13100
C633        C  0.36401584  0.84452826  0.16257992     0.19200
C634        C  0.37434827  0.83977311  0.12888170    -0.18900
C635        C  0.37834438  0.86735644  0.10715361    -0.11200
C636        C  0.37212952  0.90053441  0.11871978     0.21400
C637        C  0.36141631  0.90535827  0.15231821    -0.20500
C638        C  0.35747958  0.87767822  0.17415523    -0.11400
C639        C  0.37417207  0.93017126  0.09568462    -0.15500
C640        C  0.39330542  0.93039405  0.06745534    -0.29400
C641        C  0.35884703  0.81401891  0.18396418    -0.03600
C642        C  0.35767312  0.81432903  0.21799940    -0.40200
H643        H  0.37902197  0.81449509  0.11916703     0.12600
H644        H  0.38523607  0.86232430  0.08108980     0.12200
H645        H  0.35580921  0.93060727  0.16160421     0.11600
H646        H  0.34848031  0.88238665  0.19963592     0.11900
H647        H  0.35867398  0.95220222  0.10157144     0.14600
H648        H  0.40926258  0.90889317  0.06117266     0.13400
H649        H  0.35690178  0.78985960  0.17091702     0.11100
H650        H  0.36118077  0.83769463  0.23193939     0.13100
C651        C  0.21273078  0.83541939  0.33893700     0.19200
C652        C  0.20941664  0.86962558  0.33020487    -0.18900
C653        C  0.18044149  0.88760169  0.33931846    -0.11200
C654        C  0.15429078  0.87158595  0.35748110     0.21400
C655        C  0.15852014  0.83799173  0.36802912    -0.20500
C656        C  0.18746182  0.81996929  0.35880675    -0.11400
C657        C  0.12279031  0.88969030  0.36627689    -0.15500
C658        C  0.11046639  0.91419594  0.34642389    -0.29400
C659        C  0.24262594  0.81635530  0.32690196    -0.03600
C660        C  0.24086116  0.78325545  0.31965965    -0.40200
H661        H  0.22893477  0.88223084  0.31564910     0.12600
H662        H  0.17870820  0.91404403  0.33223436     0.12200
H663        H  0.13911562  0.82549200  0.38283135     0.11600
H664        H  0.18998013  0.79400250  0.36728624     0.11900
H665        H  0.10942585  0.88286256  0.38942134     0.14600
H666        H  0.12315977  0.92100321  0.32294906     0.13400
H667        H  0.26603626  0.82995235  0.32274066     0.11100
H668        H  0.21710321  0.76997144  0.32232420     0.13100
C669        C  0.31936214  0.70424649  0.44993421     0.19200
C670        C  0.33890110  0.72206778  0.47318760    -0.18900
C671        C  0.33264164  0.71929270  0.50782143    -0.11200
C672        C  0.30604965  0.69914900  0.52005053     0.21400
C673        C  0.28723988  0.68019155  0.49693544    -0.20500
C674        C  0.29366658  0.68282705  0.46207421    -0.11400
C675        C  0.29741404  0.69814594  0.55669856    -0.15500
C676        C  0.30235935  0.72516958  0.57674447    -0.29400
C677        C  0.32479137  0.71129928  0.41346530    -0.03600
C678        C  0.31613216  0.69023863  0.38831251    -0.40200
H679        H  0.35891477  0.73858241  0.46447600     0.12600
H680        H  0.34861529  0.73316789  0.52492234     0.12200
H681        H  0.26680292  0.66429728  0.50578265     0.11600
H682        H  0.27766533  0.66920429  0.44480797     0.11900
H683        H  0.28585352  0.67542641  0.56704763     0.14600
H684        H  0.31200429  0.74855631  0.56597423     0.13400
H685        H  0.33622929  0.73549953  0.40709818     0.11100
H686        H  0.30591282  0.66535959  0.39386034     0.13100
C687        C  0.17322798  0.70782295  0.80072945     0.19200
C688        C  0.15872112  0.73829523  0.81203912    -0.18900
C689        C  0.13640647  0.73845639  0.83959164    -0.11200
C690        C  0.12775762  0.70793885  0.85578601     0.21400
C691        C  0.14169118  0.67741287  0.84397510    -0.20500
C692        C  0.16449623  0.67733007  0.81687658    -0.11400
C693        C  0.10291446  0.70687741  0.88379862    -0.15500
C694        C  0.09928431  0.73185050  0.90660552    -0.29400
C695        C  0.19660240  0.70840564  0.77142929    -0.03600
C696        C  0.22348113  0.68773755  0.76905727    -0.40200
H697        H  0.16484609  0.76201849  0.79964349     0.12600
H698        H  0.12531980  0.76227504  0.84760335     0.12200
H699        H  0.13495934  0.65358130  0.85582751     0.11600
H700        H  0.17467872  0.65337046  0.80811046     0.11900
H701        H  0.08787678  0.68406283  0.88669795     0.14600
H702        H  0.11594940  0.75359429  0.90634540     0.13400
H703        H  0.19297677  0.72804087  0.75245428     0.11100
H704        H  0.22929966  0.67026512  0.78945778     0.13100
C705        C  0.15982004  0.81785833  0.66090505     0.19200
C706        C  0.14125249  0.82716200  0.63234191    -0.18900
C707        C  0.11488977  0.85060735  0.63527850    -0.11200
C708        C  0.10636298  0.86443697  0.66704637     0.21400
C709        C  0.12413394  0.85409750  0.69571901    -0.20500
C710        C  0.15080972  0.83123119  0.69269241    -0.11400
C711        C  0.07852886  0.88897258  0.67139476    -0.15500
C712        C  0.07090641  0.91240481  0.64803640    -0.29400
C713        C  0.18815119  0.79372952  0.65744373    -0.03600
C714        C  0.21643855  0.79759201  0.67529586    -0.40200
H715        H  0.14751761  0.81669734  0.60772152     0.12600
H716        H  0.10092902  0.85748744  0.61288398     0.12200
H717        H  0.11761862  0.86409380  0.72047574     0.11600
H718        H  0.16411152  0.82368211  0.71529347     0.11900
H719        H  0.06517654  0.88932492  0.69555681     0.14600
H720        H  0.08613450  0.91487083  0.62519580     0.13400
H721        H  0.18616801  0.77321652  0.63923190     0.11100
H722        H  0.21939057  0.81961667  0.69148104     0.13100
C723        C  0.35064070  0.88975580  0.85802621     0.19200
C724        C  0.32888342  0.86206181  0.86131399    -0.18900
C725        C  0.32504943  0.83917765  0.83468976    -0.11200
C726        C  0.34290833  0.84367276  0.80406027     0.21400
C727        C  0.36436811  0.87162707  0.80065995    -0.20500
C728        C  0.36834140  0.89441258  0.82737814    -0.11400
C729        C  0.33864119  0.82064988  0.77472947    -0.15500
C730        C  0.32841935  0.78838916  0.77800542    -0.29400
C731        C  0.35276010  0.91432349  0.88624904    -0.03600
C732        C  0.38025528  0.93297799  0.89226152    -0.40200
H733        H  0.31462996  0.85824951  0.88451500     0.12600
H734        H  0.30736592  0.81865768  0.83798122     0.12200
H735        H  0.37798974  0.87594140  0.77717285     0.11600
H736        H  0.38449209  0.91611413  0.82354983     0.11900
H737        H  0.34489525  0.83036134  0.74969830     0.14600
H738        H  0.32375895  0.77765925  0.80289212     0.13400
H739        H  0.33113565  0.91673251  0.90316149     0.11100
H740        H  0.40233524  0.93072851  0.87604855     0.13100
C741        C  0.26502725  0.31912728  0.45131689     0.19200
C742        C  0.23866774  0.33232957  0.47125533    -0.18900
C743        C  0.23735808  0.32605896  0.50609268    -0.11200
C744        C  0.26248101  0.30630905  0.52149861     0.21400
C745        C  0.28869306  0.29308102  0.50158823    -0.20500
C746        C  0.29004595  0.29934672  0.46695118    -0.11400
C747        C  0.26199139  0.29781379  0.55792165    -0.15500
C748        C  0.24689318  0.31698908  0.58169739    -0.29400
C749        C  0.26380404  0.32322528  0.41402914    -0.03600
C750        C  0.29049645  0.31728541  0.39377711    -0.40200
H751        H  0.21870874  0.34698874  0.45973318     0.12600
H752        H  0.21622491  0.33585638  0.52055373     0.12200
H753        H  0.30810338  0.27747058  0.51284772     0.11600
H754        H  0.31007968  0.28736957  0.45262377     0.11900
H755        H  0.27653735  0.27578330  0.56568407     0.14600
H756        H  0.23351026  0.33999002  0.57489781     0.13400
H757        H  0.23954093  0.32880469  0.40278325     0.11100
H758        H  0.31517306  0.31258252  0.40427085     0.13100
C759        C  0.28803422  0.47575390  0.68458753     0.19200
C760        C  0.31794826  0.49392439  0.67937868    -0.18900
C761        C  0.31720238  0.52905747  0.67449812    -0.11200
C762        C  0.28635885  0.54673835  0.67495309     0.21400
C763        C  0.25649956  0.52852956  0.67943663    -0.20500
C764        C  0.25723162  0.49359578  0.68458266    -0.11400
C765        C  0.28396013  0.58415583  0.67233566    -0.15500
C766        C  0.30877731  0.60501348  0.68170423    -0.29400
C767        C  0.29002642  0.43860282  0.69095709    -0.03600
C768        C  0.26319082  0.41806819  0.68934747    -0.40200
H769        H  0.34200271  0.48090614  0.67920019     0.12600
H770        H  0.34075111  0.54211682  0.67032347     0.12200
H771        H  0.23245154  0.54156974  0.68008249     0.11600
H772        H  0.23350671  0.48122569  0.68947099     0.11900
H773        H  0.25959672  0.59495113  0.66602679     0.14600
H774        H  0.33276798  0.59487753  0.68990839     0.13400
H775        H  0.31446620  0.42773407  0.69681520     0.11100
H776        H  0.23881240  0.42782726  0.68207659     0.13100
C777        C  0.10391454  0.12981078  0.67364920     0.19200
C778        C  0.13079814  0.13164166  0.69626264    -0.18900
C779        C  0.15175886  0.15991771  0.69646459    -0.11200
C780        C  0.14597786  0.18705350  0.67413329     0.21400
C781        C  0.11844082  0.18575686  0.65230759    -0.20500
C782        C  0.09762669  0.15733743  0.65189958    -0.11400
C783        C  0.16791572  0.21721157  0.67350307    -0.15500
C784        C  0.20094382  0.21516362  0.67994345    -0.29400
C785        C  0.08196133  0.09965615  0.67472210    -0.03600
C786        C  0.06370029  0.08927078  0.64831467    -0.40200
H787        H  0.13566351  0.11105877  0.71374095     0.12600
H788        H  0.17210363  0.16068555  0.71446034     0.12200
H789        H  0.11321978  0.20665940  0.63532152     0.11600
H790        H  0.07632790  0.15738995  0.63506151     0.11900
H791        H  0.15701271  0.24129049  0.66579577     0.14600
H792        H  0.21251014  0.19078965  0.68532757     0.13400
H793        H  0.08088377  0.08512563  0.69812121     0.11100
H794        H  0.06433813  0.10266737  0.62433314     0.13100
C795        C  0.34591002  0.13885199  0.85040811     0.19200
C796        C  0.33423630  0.13436883  0.81738903    -0.18900
C797        C  0.32611673  0.16240028  0.79739323    -0.11200
C798        C  0.32926745  0.19552296  0.81026560     0.21400
C799        C  0.33979681  0.19991442  0.84370388    -0.20500
C800        C  0.34819200  0.17190423  0.86358749    -0.11400
C801        C  0.32053765  0.22578768  0.78982698    -0.15500
C802        C  0.32377436  0.22615223  0.75599365    -0.29400
C803        C  0.35346941  0.10870002  0.87137287    -0.03600
C804        C  0.37657693  0.10927414  0.89590946    -0.40200
H805        H  0.33146994  0.10912166  0.80703889     0.12600
H806        H  0.31672061  0.15797348  0.77217285     0.12200
H807        H  0.34167749  0.22510058  0.85440963     0.11600
H808        H  0.35568764  0.17620488  0.88948702     0.11900
H809        H  0.31175888  0.24840044  0.80295795     0.14600
H810        H  0.33404851  0.20421600  0.74286346     0.13400
H811        H  0.33904245  0.08575910  0.86716967     0.11100
H812        H  0.39130396  0.13199318  0.90004959     0.13100
C813        C  0.15674966  0.32708736  0.82229646     0.19200
C814        C  0.12238632  0.33441035  0.81916086    -0.18900
C815        C  0.10221474  0.33974124  0.84780999    -0.11200
C816        C  0.11600583  0.33783536  0.88048038     0.21400
C817        C  0.15027966  0.32985969  0.88367049    -0.20500
C818        C  0.17053806  0.32463741  0.85491840    -0.11400
C819        C  0.09482676  0.34177223  0.91153219    -0.15500
C820        C  0.06566543  0.35918746  0.91185635    -0.29400
C821        C  0.17692092  0.32127053  0.79096246    -0.03600
C822        C  0.21037095  0.32594021  0.78898395    -0.40200
H823        H  0.11103185  0.33594085  0.79437507     0.12600
H824        H  0.07567519  0.34435565  0.84409829     0.12200
H825        H  0.16138099  0.32752949  0.90850694     0.11600
H826        H  0.19669387  0.31796955  0.85843151     0.11900
H827        H  0.10299167  0.32925918  0.93457522     0.14600
H828        H  0.05717646  0.37195592  0.88914732     0.13400
H829        H  0.16335645  0.31482461  0.76809384     0.11100
H830        H  0.22419574  0.33445517  0.81092282     0.13100
C831        C  0.68901203  0.26596498  0.48062420     0.19200
C832        C  0.68000354  0.29464858  0.49963675    -0.18900
C833        C  0.67402587  0.29208623  0.53446647    -0.11200
C834        C  0.67748672  0.26074402  0.55113904     0.21400
C835        C  0.68584802  0.23190972  0.53202783    -0.20500
C836        C  0.69178342  0.23446190  0.49714946    -0.11400
C837        C  0.67313386  0.25750029  0.58840541    -0.15500
C838        C  0.68091479  0.28277549  0.60971166    -0.29400
C839        C  0.69678736  0.27008839  0.44402169    -0.03600
C840        C  0.69285099  0.24510111  0.42132699    -0.40200
H841        H  0.67754736  0.31914243  0.48747012     0.12600
H842        H  0.66662988  0.31466999  0.54821257     0.12200
H843        H  0.68872218  0.20751011  0.54428538     0.11600
H844        H  0.69947794  0.21194030  0.48347113     0.11900
H845        H  0.66600892  0.23296181  0.59867715     0.14600
H846        H  0.69076347  0.30644126  0.59977436     0.13400
H847        H  0.70496406  0.29489745  0.43531237     0.11100
H848        H  0.68239326  0.22093355  0.42916921     0.13100
C849        C  0.44059636  0.32566592  0.67260974     0.19200
C850        C  0.46221650  0.34574933  0.69182820    -0.18900
C851        C  0.49659230  0.33882622  0.69245479    -0.11200
C852        C  0.50997524  0.31112247  0.67434092     0.21400
C853        C  0.48891980  0.29272422  0.65292615    -0.20500
C854        C  0.45440660  0.29973733  0.65217143    -0.11400
C855        C  0.54511078  0.29966243  0.67936179    -0.15500
C856        C  0.55989345  0.30292948  0.70959122    -0.29400
C857        C  0.40392623  0.32923999  0.67869812    -0.03600
C858        C  0.38034017  0.31597066  0.65860443    -0.40200
H859        H  0.45227664  0.36599348  0.70757002     0.12600
H860        H  0.51243751  0.35453263  0.70805127     0.12200
H861        H  0.49880111  0.27155829  0.63842106     0.11600
H862        H  0.43859900  0.28334370  0.63731970     0.11900
H863        H  0.55813903  0.28658203  0.65885582     0.14600
H864        H  0.54621214  0.31439875  0.73059629     0.13400
H865        H  0.39616207  0.34095816  0.70244434     0.11100
H866        H  0.38701350  0.30550505  0.63405148     0.13100
C867        C  0.62580727  0.11499353  0.88792464     0.19200
C868        C  0.64656378  0.14358958  0.88771273    -0.18900
C869        C  0.64617036  0.16611385  0.86061888    -0.11200
C870        C  0.62450266  0.16085889  0.83318263     0.21400
C871        C  0.60385909  0.13217229  0.83309295    -0.20500
C872        C  0.60419567  0.10952667  0.86036317    -0.11400
C873        C  0.62422594  0.18443830  0.80402506    -0.15500
C874        C  0.63126617  0.21738393  0.80800614    -0.29400
C875        C  0.62828545  0.09166660  0.91723019    -0.03600
C876        C  0.61548313  0.06024838  0.91808901    -0.40200
H877        H  0.66364065  0.14828391  0.90839564     0.12600
H878        H  0.66348600  0.18719975  0.86097190     0.12200
H879        H  0.58719599  0.12750536  0.81207479     0.11600
H880        H  0.58735155  0.08813555  0.85962487     0.11900
H881        H  0.61902821  0.17444754  0.77899183     0.14600
H882        H  0.63504641  0.22759877  0.83319641     0.13400
H883        H  0.64328586  0.09996010  0.93854962     0.11100
H884        H  0.60253707  0.04993756  0.89642655     0.13100
C885        C  0.84048186  0.10966571  0.69224138     0.19200
C886        C  0.80708484  0.10296092  0.70164438    -0.18900
C887        C  0.78373210  0.12943846  0.70485040    -0.11200
C888        C  0.79340388  0.16317325  0.69809164     0.21400
C889        C  0.82677612  0.16957295  0.68825318    -0.20500
C890        C  0.85002574  0.14320845  0.68523779    -0.11400
C891        C  0.77001114  0.19260774  0.70026722    -0.15500
C892        C  0.73704084  0.19057049  0.70775120    -0.29400
C893        C  0.86478083  0.08134694  0.68864507    -0.03600
C894        C  0.89758671  0.08520554  0.69553520    -0.40200
H895        H  0.79916087  0.07721942  0.70684851     0.12600
H896        H  0.75840832  0.12304405  0.71252659     0.12200
H897        H  0.83490873  0.19514363  0.68254243     0.11600
H898        H  0.87529597  0.14912772  0.67673203     0.11900
H899        H  0.78054391  0.21744484  0.69486242     0.14600
H900        H  0.72525815  0.16649904  0.71336013     0.13400
H901        H  0.85556982  0.05695722  0.68005163     0.11100
H902        H  0.90655180  0.10942780  0.70476383     0.13100
C903        C  0.84521075  0.31498841  0.88945558     0.19200
C904        C  0.81072036  0.31114349  0.89594772    -0.18900
C905        C  0.78833575  0.30616578  0.86933031    -0.11200
C906        C  0.80018668  0.30456565  0.83564773     0.21400
C907        C  0.83489132  0.30689757  0.82936568    -0.20500
C908        C  0.85721683  0.31223236  0.85594362    -0.11400
C909        C  0.77717951  0.29987357  0.80663101    -0.15500
C910        C  0.74503673  0.31062267  0.80716331    -0.29400
C911        C  0.86817816  0.32136683  0.91806461    -0.03600
C912        C  0.89535643  0.34127579  0.91479012    -0.40200
H913        H  0.80102312  0.31254757  0.92163616     0.12600
H914        H  0.76189395  0.30318593  0.87530216     0.12200
H915        H  0.84470920  0.30506599  0.80374994     0.11600
H916        H  0.88385724  0.31384007  0.85024256     0.11900
H917        H  0.78744928  0.28864896  0.78361210     0.14600
H918        H  0.73497700  0.32361422  0.82927280     0.13400
H919        H  0.86204326  0.31035260  0.94256621     0.11100
H920        H  0.90137274  0.35243668  0.89034030     0.13100
C921        C  0.71589807  0.66949163  0.47208426     0.19200
C922        C  0.74016244  0.65825464  0.49505581    -0.18900
C923        C  0.73580189  0.66358845  0.52976438    -0.11200
C924        C  0.70659052  0.67978924  0.54232182     0.21400
C925        C  0.68182846  0.69004715  0.51934758    -0.20500
C926        C  0.68628608  0.68483428  0.48459673    -0.11400
C927        C  0.70190827  0.68824612  0.57873952    -0.15500
C928        C  0.71945586  0.67349204  0.60370481    -0.29400
C929        C  0.72304246  0.66600849  0.43533764    -0.03600
C930        C  0.71121961  0.68805997  0.41236670    -0.40200
H931        H  0.76319878  0.64642720  0.48601427     0.12600
H932        H  0.75599632  0.65600924  0.54627761     0.12200
H933        H  0.65907011  0.70246550  0.52829946     0.11600
H934        H  0.66657824  0.69295718  0.46768229     0.11900
H935        H  0.68335969  0.70756593  0.58520476     0.14600
H936        H  0.73698100  0.65305660  0.59824558     0.13400
H937        H  0.74126642  0.64691194  0.42741112     0.11100
H938        H  0.69477132  0.70869073  0.42019380     0.13100
C939        C  0.46602759  0.69187098  0.68100167     0.19200
C940        C  0.48208088  0.66283659  0.69363209    -0.18900
C941        C  0.51675336  0.65851691  0.68970324    -0.11200
C942        C  0.53610948  0.68347821  0.67332168     0.21400
C943        C  0.51986965  0.71154864  0.65900813    -0.20500
C944        C  0.48521379  0.71593893  0.66299664    -0.11400
C945        C  0.57332705  0.68287416  0.67342150    -0.15500
C946        C  0.59070319  0.66931181  0.69913149    -0.29400
C947        C  0.42988422  0.69695849  0.68913985    -0.03600
C948        C  0.41020220  0.71994937  0.67383302    -0.40200
H949        H  0.46785344  0.64376840  0.70729612     0.12600
H950        H  0.52834226  0.63600453  0.70012870     0.12200
H951        H  0.53428938  0.73109673  0.64626220     0.11600
H952        H  0.47415123  0.73895296  0.65322241     0.11900
H953        H  0.58642421  0.69856168  0.65492769     0.14600
H954        H  0.57778580  0.65566899  0.71922925     0.13400
H955        H  0.41892519  0.68084574  0.70864643     0.11100
H956        H  0.41956330  0.73512194  0.65292984     0.13100
C957        C  0.69770829  0.52302675  0.70776430     0.19200
C958        C  0.66945467  0.50497537  0.69695678    -0.18900
C959        C  0.67094283  0.46983544  0.69310536    -0.11200
C960        C  0.70072901  0.45202054  0.70045115     0.21400
C961        C  0.72946831  0.47015995  0.70947651    -0.20500
C962        C  0.72798144  0.50527616  0.71345312    -0.11400
C963        C  0.70192950  0.41455304  0.70161866    -0.15500
C964        C  0.67513991  0.39642530  0.71161610    -0.29400
C965        C  0.69408989  0.55987419  0.71446383    -0.03600
C966        C  0.72038464  0.58099910  0.71636613    -0.40200
H967        H  0.64596891  0.51803782  0.69204706     0.12600
H968        H  0.64859959  0.45665856  0.68498358     0.12200
H969        H  0.75268103  0.45694061  0.71519389     0.11600
H970        H  0.75023905  0.51792877  0.72241617     0.11900
H971        H  0.72614524  0.40202798  0.69827787     0.14600
H972        H  0.65141416  0.40902772  0.71727727     0.13400
H973        H  0.66877132  0.57012935  0.71716598     0.11100
H974        H  0.74575567  0.57196730  0.71147805     0.13100
C975        C  0.63716197  0.85183474  0.88462352     0.19200
C976        C  0.62220250  0.85251209  0.85260468    -0.18900
C977        C  0.62656278  0.82544236  0.83009581    -0.11200
C978        C  0.64601853  0.79703800  0.83933832     0.21400
C979        C  0.65959536  0.79577042  0.87195163    -0.20500
C980        C  0.65518054  0.82271873  0.89440262    -0.11400
C981        C  0.65321220  0.76826081  0.81609179    -0.15500
C982        C  0.64938019  0.76946759  0.78230706    -0.29400
C983        C  0.63326024  0.88166927  0.90722834    -0.03600
C984        C  0.65489237  0.88863649  0.93222620    -0.40200
H985        H  0.60755600  0.87431525  0.84476057     0.12600
H986        H  0.61460050  0.82703047  0.80569879     0.12200
H987        H  0.67412016  0.77395895  0.88000707     0.11600
H988        H  0.66578101  0.82036268  0.91939408     0.11900
H989        H  0.66415713  0.74558716  0.82720788     0.14600
H990        H  0.63952420  0.79195903  0.77008646     0.13400
H991        H  0.61250120  0.89904789  0.90262708     0.11100
H992        H  0.67592063  0.87189475  0.93738557     0.13100
C993        C  0.87410159  0.70825822  0.88406395     0.19200
C994        C  0.83950913  0.70965135  0.89149465    -0.18900
C995        C  0.81586533  0.70694188  0.86560160    -0.11200
C996        C  0.82660783  0.70317339  0.83177343     0.21400
C997        C  0.86112144  0.70303677  0.82431332    -0.20500
C998        C  0.88464693  0.70557279  0.85007332    -0.11400
C999        C  0.80293906  0.70061939  0.80324690    -0.15500
C1000       C  0.77173022  0.68785457  0.80595145    -0.29400
C1001       C  0.89861722  0.71046322  0.91202821    -0.03600
C1002       C  0.92989930  0.69752739  0.90958608    -0.40200
H1003       H  0.83078926  0.71249909  0.91740779     0.12600
H1004       H  0.78938029  0.70832450  0.87206873     0.12200
H1005       H  0.86996283  0.70081956  0.79837118     0.11600
H1006       H  0.91099962  0.70600236  0.84304417     0.11900
H1007       H  0.81245632  0.70793739  0.77840848     0.14600
H1008       H  0.76216580  0.67869420  0.83009069     0.13400
H1009       H  0.89065595  0.72261961  0.93547480     0.11100
H1010       H  0.93832758  0.68494743  0.88660972     0.13100
C1011       C  0.85337354  0.87852058  0.70044319     0.19200
C1012       C  0.82788074  0.87483045  0.67645336    -0.18900
C1013       C  0.80840864  0.84552126  0.67574440    -0.11200
C1014       C  0.81395156  0.81946126  0.69931444     0.21400
C1015       C  0.83897390  0.82335013  0.72373384    -0.20500
C1016       C  0.85830453  0.85278806  0.72461209    -0.11400
C1017       C  0.79447934  0.78770606  0.69859715    -0.15500
C1018       C  0.76204215  0.78690246  0.68955447    -0.29400
C1019       C  0.87520489  0.90873629  0.69821054    -0.03600
C1020       C  0.90706236  0.90890903  0.70918950    -0.40200
H1021       H  0.82368524  0.89425415  0.65753635     0.12600
H1022       H  0.78970801  0.84293082  0.65618560     0.12200
H1023       H  0.84341335  0.80363286  0.74229086     0.11600
H1024       H  0.87701421  0.85516735  0.74415459     0.11900
H1025       H  0.80644738  0.76478022  0.70803834     0.14600
H1026       H  0.74884350  0.81014480  0.68310433     0.13400
H1027       H  0.86628369  0.93018733  0.68344274     0.11100
H1028       H  0.91768856  0.88662754  0.72119999     0.13100
loop_ 
_geom_bond_atom_site_label_1 
_geom_bond_atom_site_label_2 
_geom_bond_distance 
_geom_bond_site_symmetry_2 
_ccdc_geom_bond_type 
O1           C16   1.256       .  A
O1           Al9   1.887       .  S
C2           O12   1.257       .  A
C2            O3   1.261       .  A
C2         C1000   1.474       .  S
O3           Al5   1.924       .  S
O4            C6   1.263       .  A
O4           Al5   1.888       .  S
Al5          O13   1.897       .  S
Al5          O15   1.902       .  S
Al5          O14   1.788       .  S
C6           O19   1.266       .  A
C6          C982   1.475       .  S
O7           C17   1.254       .  A
O7           Al9   1.880       .  S
O8           C21   1.257       .  A
O8          Al18   1.882       .  S
Al9          O22   1.919       .  S
Al9          O19   1.925       .  S
Al9          O14   1.787       .  S
O10          C17   1.259       .  A
O10         Al18   1.902       .  S
O11          C20   1.262       .  A
O11         Al18   1.911       .  S
O12         Al18   1.880       .  S
O13          C20   1.263       .  A
O14         Al18   1.784       .  S
O15          C16   1.257       .  A
C16         C946   1.468       .  S
C17        C1018   1.466       .  S
C20         C966   1.469       .  S
C21          O22   1.265       .  A
C21         C928   1.473       .  S
O23          C38   1.268       .  A
O23         Al31   1.932       .  S
C24          O34   1.269       .  A
C24          O25   1.257       .  A
C24         C874   1.464       .  S
O25         Al27   1.865       .  S
O26          C28   1.260       .  A
O26         Al27   1.917       .  S
Al27         O35   1.904       .  S
Al27         O37   1.875       .  S
Al27         O36   1.780       .  S
C28          O41   1.259       .  A
C28         C910   1.474       .  S
O29          C39   1.266       .  A
O29         Al31   1.920       .  S
O30          C43   1.265       .  A
O30         Al40   1.931       .  S
Al31         O44   1.884       .  S
Al31         O41   1.898       .  S
Al31         O36   1.778       .  S
O32          C39   1.256       .  A
O32         Al40   1.882       .  S
O33          C42   1.259       .  A
O33         Al40   1.900       .  S
O34         Al40   1.937       .  S
O35          C42   1.258       .  A
O36         Al40   1.784       .  S
O37          C38   1.257       .  A
C38         C964   1.467       .  S
C39         C892   1.473       .  S
C42         C856   1.465       .  S
C43          O44   1.257       .  A
C43         C838   1.474       .  S
O45          C60   1.256       .  A
O45         Al53   1.880       .  S
C46          O56   1.263       .  A
C46          O47   1.262       .  A
C46         C768   1.470       .  S
O47         Al49   1.908       .  S
O48          C50   1.256       .  A
O48         Al49   1.889       .  S
Al49         O57   1.894       .  S
Al49         O59   1.918       .  S
Al49         O58   1.783       .  S
C50          O63   1.262       .  A
C50         C748   1.471       .  S
O51          C61   1.257       .  A
O51         Al53   1.891       .  S
O52          C65   1.263       .  A
O52         Al62   1.903       .  S
Al53         O66   1.911       .  S
Al53         O63   1.907       .  S
Al53         O58   1.782       .  S
O54          C61   1.264       .  A
O54         Al62   1.916       .  S
O55          C64   1.261       .  A
O55         Al62   1.917       .  S
O56         Al62   1.901       .  S
O57          C64   1.260       .  A
O58         Al62   1.782       .  S
O59          C60   1.264       .  A
C60         C784   1.468       .  S
C61         C858   1.472       .  S
C64         C822   1.475       .  S
C65          O66   1.261       .  A
C65         C802   1.470       .  S
O67          C82   1.265       .  A
O67         Al75   1.921       .  S
C68          O78   1.265       .  A
C68          O69   1.261       .  A
C68         C696   1.469       .  S
O69         Al71   1.886       .  S
O70          C72   1.265       .  A
O70         Al71   1.927       .  S
Al71         O79   1.924       .  S
Al71         O81   1.900       .  S
Al71         O80   1.781       .  S
C72          O85   1.258       .  A
C72         C714   1.467       .  S
O73          C83   1.262       .  A
O73         Al75   1.920       .  S
O74          C87   1.266       .  A
O74         Al84   1.916       .  S
Al75         O88   1.880       .  S
Al75         O85   1.886       .  S
Al75         O80   1.778       .  S
O76          C83   1.254       .  A
O76         Al84   1.882       .  S
O77          C86   1.254       .  A
O77         Al84   1.881       .  S
O78         Al84   1.928       .  S
O79          C86   1.264       .  A
O80         Al84   1.778       .  S
O81          C82   1.263       .  A
C82         C676   1.470       .  S
C83         C730   1.471       .  S
C86         C766   1.472       .  S
C87          O88   1.258       .  A
C87         C948   1.468       .  S
O89         C104   1.258       .  A
O89         Al97   1.890       .  S
C90         O100   1.259       .  A
C90          O91   1.263       .  A
C90         C624   1.473       .  S
O91         Al93   1.926       .  S
O92          C94   1.260       .  A
O92         Al93   1.886       .  S
Al93        O101   1.902       .  S
Al93        O103   1.909       .  S
Al93        O102   1.790       .  S
C94         O107   1.262       .  A
C94         C642   1.475       .  S
O95         C105   1.260       .  A
O95         Al97   1.900       .  S
O96         C109   1.260       .  A
O96        Al106   1.896       .  S
Al97        O110   1.915       .  S
Al97        O107   1.918       .  S
Al97        O102   1.786       .  S
O98         C105   1.257       .  A
O98        Al106   1.895       .  S
O99         C108   1.260       .  A
O99        Al106   1.894       .  S
O100       Al106   1.880       .  S
O101        C108   1.258       .  A
O102       Al106   1.781       .  S
O103        C104   1.262       .  A
C104        C604   1.472       .  S
C105        C660   1.465       .  S
C108        C586   1.476       .  S
C109        O110   1.266       .  A
C109        C678   1.476       .  S
O111        C126   1.257       .  A
O111       Al119   1.903       .  S
C112        O122   1.260       .  A
C112        O113   1.253       .  A
C112        C532   1.473       .  S
O113       Al115   1.883       .  S
O114        C116   1.270       .  A
O114       Al115   1.950       .  S
Al115       O123   1.954       .  S
Al115       O125   1.893       .  S
Al115       O124   1.789       .  S
C116        O129   1.257       .  A
C116        C568   1.475       .  S
O117        C127   1.263       .  A
O117       Al119   1.913       .  S
O118        C131   1.263       .  A
O118       Al128   1.926       .  S
Al119       O132   1.886       .  S
Al119       O129   1.870       .  S
Al119       O124   1.781       .  S
O120        C127   1.258       .  A
O120       Al128   1.896       .  S
O121        C130   1.257       .  A
O121       Al128   1.869       .  S
O122       Al128   1.909       .  S
O123        C130   1.271       .  A
O124       Al128   1.786       .  S
O125        C126   1.258       .  A
C126        C930   1.472       .  S
C127        C550   1.473       .  S
C130        C516   1.477       .  S
C131        O132   1.260       .  A
C131        C606   1.473       .  S
O133        C148   1.256       .  A
O133       Al141   1.879       .  S
C134        O144   1.258       .  A
C134        O135   1.268       .  A
C134        C496   1.479       .  S
O135       Al137   1.940       .  S
O136        C138   1.258       .  A
O136       Al137   1.884       .  S
Al137       O145   1.880       .  S
Al137       O147   1.941       .  S
Al137       O146   1.777       .  S
C138        O151   1.267       .  A
C138        C478   1.472       .  S
O139        C149   1.258       .  A
O139       Al141   1.883       .  S
O140        C153   1.257       .  A
O140       Al150   1.879       .  S
Al141       O154   1.927       .  S
Al141       O151   1.932       .  S
Al141       O146   1.779       .  S
O142        C149   1.265       .  A
O142       Al150   1.922       .  S
O143        C152   1.265       .  A
O143       Al150   1.925       .  S
O144       Al150   1.889       .  S
O145        C152   1.256       .  A
O146       Al150   1.781       .  S
O147        C148   1.267       .  A
C148        C442   1.474       .  S
C149        C460   1.470       .  S
C152        C750   1.465       .  S
C153        O154   1.265       .  A
C153        C588   1.467       .  S
O155        C170   1.265       .  A
O155       Al163   1.899       .  S
C156        O166   1.255       .  A
C156        O157   1.261       .  A
C156        C388   1.475       .  S
O157       Al159   1.913       .  S
O158        C160   1.257       .  A
O158       Al159   1.902       .  S
Al159       O167   1.874       .  S
Al159       O169   1.928       .  S
Al159       O168   1.785       .  S
C160        O173   1.260       .  A
C160        C424   1.475       .  S
O161        C171   1.264       .  A
O161       Al163   1.896       .  S
O162        C175   1.261       .  A
O162       Al172   1.912       .  S
Al163       O176   1.899       .  S
Al163       O173   1.911       .  S
Al163       O168   1.782       .  S
O164        C171   1.270       .  A
O164       Al172   1.931       .  S
O165        C174   1.268       .  A
O165       Al172   1.936       .  S
O166       Al172   1.888       .  S
O167        C174   1.256       .  A
O168       Al172   1.788       .  S
O169        C170   1.266       .  A
C170        C840   1.474       .  S
C171        C406   1.477       .  S
C174        C444   1.475       .  S
C175        O176   1.256       .  A
C175        C514   1.476       .  S
N177        C182   1.357       .  A
N177        C181   1.351   1_455  A
N177        H209   1.041       .  S
N178        C185   1.351   1_565  A
N178        C186   1.354       .  A
N179        C184   1.351       .  A
N179        C183   1.352   1_455  A
N179        H210   1.040       .  S
N180        C187   1.351   1_565  A
N180        C188   1.349       .  A
C181        C189   1.388       .  A
C181        C197   1.414       .  A
C182        C198   1.416       .  A
C182        C190   1.386       .  A
C183        C191   1.387   1_655  A
C183        C200   1.412       .  A
C184        C199   1.411       .  A
C184        C192   1.387       .  A
C185        C197   1.415       .  A
C185        C193   1.388       .  A
C186        C200   1.412       .  A
C186        C194   1.385       .  A
C187        C195   1.387       .  A
C187        C198   1.410       .  A
C188        C196   1.386       .  A
C188        C199   1.407       .  A
C189        C190   1.375   1_655  A
C189        H201   1.082       .  S
C190        H202   1.082       .  S
C191        C192   1.375       .  A
C191        H203   1.082   1_455  S
C192        H204   1.082       .  S
C193        C194   1.374   1_545  A
C193        H205   1.082       .  S
C194        H206   1.082       .  S
C195        C196   1.369   1_545  A
C195        H207   1.082       .  S
C196        H208   1.083       .  S
C197        C426   1.484       .  S
C198        C498   1.493       .  S
C199        C658   1.475       .  S
C200        C570   1.485       .  S
N211        C216   1.352   1_565  A
N211        C215   1.351       .  A
N211        H243   1.039       .  S
N212        C219   1.351   1_655  A
N212        C220   1.350       .  A
N213        C218   1.352   1_565  A
N213        C217   1.351       .  A
N213        H244   1.040       .  S
N214        C221   1.350   1_655  A
N214        C222   1.350       .  A
C215        C223   1.386       .  A
C215        C231   1.410       .  A
C216        C232   1.413       .  A
C216        C224   1.388       .  A
C217        C225   1.387       .  A
C217        C234   1.412       .  A
C218        C233   1.414       .  A
C218        C226   1.387       .  A
C219        C231   1.411       .  A
C219        C227   1.386   1_455  A
C220        C234   1.410       .  A
C220        C228   1.387       .  A
C221        C229   1.386   1_455  A
C221        C232   1.408       .  A
C222        C230   1.388       .  A
C222        C233   1.411       .  A
C223        C224   1.375   1_565  A
C223        H235   1.082       .  S
C224        H236   1.082       .  S
C225        C226   1.375   1_565  A
C225        H237   1.082       .  S
C226        H238   1.082       .  S
C227        C228   1.370       .  A
C227        H239   1.082   1_655  S
C228        H240   1.082       .  S
C229        C230   1.371       .  A
C229        H241   1.082   1_655  S
C230        H242   1.082       .  S
C231        C712   1.483       .  S
C232        C786   1.478       .  S
C233        C894   1.486       .  S
C234       C1020   1.482       .  S
N245        C250   1.353       .  A
N245        C249   1.353   1_545  A
N245        H277   1.039       .  S
N246        C253   1.352       .  A
N246        C254   1.350   1_556  A
N247        C252   1.353       .  A
N247        C251   1.352   1_545  A
N247        H278   1.040       .  S
N248        C255   1.351       .  A
N248        C256   1.351   1_556  A
C249        C257   1.388   1_565  A
C249        C265   1.414       .  A
C250        C266   1.413       .  A
C250        C258   1.385       .  A
C251        C259   1.387   1_565  A
C251        C268   1.413       .  A
C252        C267   1.412       .  A
C252        C260   1.386       .  A
C253        C265   1.415       .  A
C253        C261   1.388       .  A
C254        C268   1.412       .  A
C254        C262   1.386   1_554  A
C255        C263   1.387       .  A
C255        C266   1.409       .  A
C256        C264   1.386       .  A
C256        C267   1.409       .  A
C257        C258   1.375       .  A
C257        H269   1.082   1_545  S
C258        H270   1.082       .  S
C259        C260   1.376       .  A
C259        H271   1.082   1_545  S
C260        H272   1.082       .  S
C261        C262   1.370       .  A
C261        H273   1.081       .  S
C262        H274   1.082   1_556  S
C263        C264   1.369   1_556  A
C263        H275   1.082       .  S
C264        H276   1.082       .  S
C265        C732   1.485       .  S
C266        C804   1.483       .  S
C267        C480   1.486       .  S
C268        C640   1.483       .  S
N279        C284   1.356       .  A
N279        C283   1.353   1_655  A
N279        H311   1.038       .  S
N280        C287   1.349       .  A
N280        C288   1.352   1_554  A
N281        C286   1.353       .  A
N281        C285   1.353   1_655  A
N281        H312   1.039       .  S
N282        C289   1.351       .  A
N282        C290   1.351   1_554  A
C283        C291   1.388   1_455  A
C283        C299   1.417       .  A
C284        C300   1.419       .  A
C284        C292   1.388       .  A
C285        C293   1.386       .  A
C285        C302   1.411       .  A
C286        C301   1.413       .  A
C286        C294   1.388       .  A
C287        C299   1.414       .  A
C287        C295   1.387       .  A
C288        C302   1.411       .  A
C288        C296   1.385       .  A
C289        C297   1.386       .  A
C289        C300   1.412       .  A
C290        C298   1.387       .  A
C290        C301   1.415       .  A
C291        C292   1.373       .  A
C291        H303   1.082   1_655  S
C292        H304   1.081       .  S
C293        C294   1.373   1_455  A
C293        H305   1.083       .  S
C294        H306   1.082       .  S
C295        C296   1.374   1_554  A
C295        H307   1.082       .  S
C296        H308   1.082       .  S
C297        C298   1.374   1_554  A
C297        H309   1.082       .  S
C298        H310   1.082       .  S
C299        C462   1.486       .  S
C300        C408   1.489       .  S
C301        C912   1.487       .  S
C302        C820   1.487       .  S
N313        C318   1.351   1_554  A
N313        C317   1.353       .  A
N313        H345   1.040       .  S
N314        C321   1.350   1_565  A
N314        C322   1.351       .  A
N315        C320   1.352   1_554  A
N315        C319   1.353       .  A
N315        H346   1.041       .  S
N316        C323   1.350   1_565  A
N316        C324   1.351       .  A
C317        C325   1.386       .  A
C317        C333   1.413       .  A
C318        C334   1.415       .  A
C318        C326   1.387       .  A
C319        C327   1.388       .  A
C319        C336   1.415       .  A
C320        C335   1.408       .  A
C320        C328   1.385   1_556  A
C321        C333   1.410       .  A
C321        C329   1.387       .  A
C322        C336   1.409       .  A
C322        C330   1.386       .  A
C323        C331   1.387   1_545  A
C323        C334   1.409       .  A
C324        C332   1.385       .  A
C324        C335   1.409       .  A
C325        C326   1.376   1_554  A
C325        H337   1.082       .  S
C326        H338   1.082       .  S
C327        C328   1.374       .  A
C327        H339   1.082       .  S
C328        H340   1.083   1_554  S
C329        C330   1.371   1_545  A
C329        H341   1.082       .  S
C330        H342   1.082       .  S
C331        C332   1.372       .  A
C331        H343   1.082   1_565  S
C332        H344   1.082       .  S
C333        C390   1.485       .  S
C334        C876   1.485       .  S
C335        C984   1.483       .  S
C336        C552   1.487       .  S
N347        C352   1.353   1_455  A
N347        C351   1.353       .  A
N347        H379   1.040       .  S
N348        C355   1.350   1_556  A
N348        C356   1.350       .  A
N349        C354   1.352   1_455  A
N349        C353   1.351       .  A
N349        H380   1.039       .  S
N350        C357   1.350   1_556  A
N350        C358   1.350       .  A
C351        C359   1.387       .  A
C351        C367   1.412       .  A
C352        C368   1.415       .  A
C352        C360   1.387       .  A
C353        C361   1.386       .  A
C353        C370   1.410       .  A
C354        C369   1.411       .  A
C354        C362   1.388       .  A
C355        C367   1.413       .  A
C355        C363   1.388       .  A
C356        C370   1.408       .  A
C356        C364   1.384       .  A
C357        C365   1.388       .  A
C357        C368   1.410       .  A
C358        C366   1.385       .  A
C358        C369   1.410       .  A
C359        C360   1.375   1_455  A
C359        H371   1.082       .  S
C360        H372   1.082       .  S
C361        C362   1.374   1_455  A
C361        H373   1.082       .  S
C362        H374   1.082       .  S
C363        C364   1.371   1_554  A
C363        H375   1.081       .  S
C364        H376   1.082       .  S
C365        C366   1.372   1_554  A
C365        H377   1.082       .  S
C366        H378   1.082       .  S
C367        C622   1.482       .  S
C368        C534   1.487       .  S
C369       C1002   1.482       .  S
C370        C694   1.481       .  S
C381        C389   1.484       .  S
C381        C382   1.403       .  A
C381        C386   1.407       .  A
C382        C383   1.399       .  A
C382        H391   1.083       .  S
C383        C384   1.408       .  A
C383        H392   1.081       .  S
C384        C387   1.484       .  S
C384        C385   1.402       .  A
C385        C386   1.396       .  A
C385        H393   1.083       .  S
C386        H394   1.082       .  S
C387        H395   1.087       .  S
C387        C388   1.343       .  D
C388        H396   1.085       .  S
C389        H397   1.087       .  S
C389        C390   1.344       .  D
C390        H398   1.085       .  S
C399        C407   1.490       .  S
C399        C400   1.404       .  A
C399        C404   1.409       .  A
C400        C401   1.397       .  A
C400        H409   1.083       .  S
C401        C402   1.406       .  A
C401        H410   1.082       .  S
C402        C405   1.488       .  S
C402        C403   1.404       .  A
C403        C404   1.401       .  A
C403        H411   1.083       .  S
C404        H412   1.080       .  S
C405        H413   1.087       .  S
C405        C406   1.347       .  D
C406        H414   1.085       .  S
C407        H415   1.088       .  S
C407        C408   1.347       .  D
C408        H416   1.083       .  S
C417        C425   1.482       .  S
C417        C418   1.403       .  A
C417        C422   1.406       .  A
C418        C419   1.398       .  A
C418        H427   1.083       .  S
C419        C420   1.407       .  A
C419        H428   1.081       .  S
C420        C423   1.483       .  S
C420        C421   1.403       .  A
C421        C422   1.395       .  A
C421        H429   1.084       .  S
C422        H430   1.082       .  S
C423        H431   1.087       .  S
C423        C424   1.347       .  D
C424        H432   1.084       .  S
C425        H433   1.087       .  S
C425        C426   1.344       .  D
C426        H434   1.085       .  S
C435        C443   1.494       .  S
C435        C436   1.402       .  A
C435        C440   1.413       .  A
C436        C437   1.397       .  A
C436        H445   1.083       .  S
C437        C438   1.408       .  A
C437        H446   1.081       .  S
C438        C441   1.489       .  S
C438        C439   1.402       .  A
C439        C440   1.401       .  A
C439        H447   1.083       .  S
C440        H448   1.079       .  S
C441        H449   1.087       .  S
C441        C442   1.344       .  D
C442        H450   1.085       .  S
C443        H451   1.087       .  S
C443        C444   1.343       .  D
C444        H452   1.082       .  S
C453        C461   1.485       .  S
C453        C454   1.403       .  A
C453        C458   1.409       .  A
C454        C455   1.395       .  A
C454        H463   1.084       .  S
C455        C456   1.406       .  A
C455        H464   1.082       .  S
C456        C459   1.480       .  S
C456        C457   1.401       .  A
C457        C458   1.397       .  A
C457        H465   1.083       .  S
C458        H466   1.080       .  S
C459        H467   1.087       .  S
C459        C460   1.343       .  D
C460        H468   1.085       .  S
C461        H469   1.088       .  S
C461        C462   1.345       .  D
C462        H470   1.083       .  S
C471        C479   1.485       .  S
C471        C472   1.402       .  A
C471        C476   1.408       .  A
C472        C473   1.397       .  A
C472        H481   1.083       .  S
C473        C474   1.408       .  A
C473        H482   1.081       .  S
C474        C477   1.486       .  S
C474        C475   1.403       .  A
C475        C476   1.398       .  A
C475        H483   1.083       .  S
C476        H484   1.081       .  S
C477        H485   1.087       .  S
C477        C478   1.344       .  D
C478        H486   1.084       .  S
C479        H487   1.088       .  S
C479        C480   1.344       .  D
C480        H488   1.084       .  S
C489        C497   1.487       .  S
C489        C490   1.404       .  A
C489        C494   1.407       .  A
C490        C491   1.403       .  A
C490        H499   1.083       .  S
C491        C492   1.410       .  A
C491        H500   1.082       .  S
C492        C495   1.488       .  S
C492        C493   1.402       .  A
C493        C494   1.396       .  A
C493        H501   1.083       .  S
C494        H502   1.082       .  S
C495        H503   1.087       .  S
C495        C496   1.344       .  D
C496        H504   1.085       .  S
C497        H505   1.086       .  S
C497        C498   1.346       .  D
C498        H506   1.086       .  S
C507        C515   1.493       .  S
C507        C508   1.402       .  A
C507        C512   1.410       .  A
C508        C509   1.401       .  A
C508        H517   1.083       .  S
C509        C510   1.411       .  A
C509        H518   1.081       .  S
C510        C513   1.491       .  S
C510        C511   1.401       .  A
C511        C512   1.400       .  A
C511        H519   1.083       .  S
C512        H520   1.082       .  S
C513        H521   1.087       .  S
C513        C514   1.343       .  D
C514        H522   1.085       .  S
C515        H523   1.087       .  S
C515        C516   1.344       .  D
C516        H524   1.086       .  S
C525        C533   1.476       .  S
C525        C526   1.400       .  A
C525        C530   1.403       .  A
C526        C527   1.399       .  A
C526        H535   1.084       .  S
C527        C528   1.411       .  A
C527        H536   1.079       .  S
C528        C531   1.486       .  S
C528        C529   1.404       .  A
C529        C530   1.394       .  A
C529        H537   1.083       .  S
C530        H538   1.083       .  S
C531        H539   1.087       .  S
C531        C532   1.345       .  D
C532        H540   1.082       .  S
C533        H541   1.086       .  S
C533        C534   1.344       .  D
C534        H542   1.087       .  S
C543        C551   1.485       .  S
C543        C544   1.404       .  A
C543        C548   1.408       .  A
C544        C545   1.399       .  A
C544        H553   1.083       .  S
C545        C546   1.406       .  A
C545        H554   1.081       .  S
C546        C549   1.481       .  S
C546        C547   1.401       .  A
C547        C548   1.393       .  A
C547        H555   1.084       .  S
C548        H556   1.080       .  S
C549        H557   1.087       .  S
C549        C550   1.345       .  D
C550        H558   1.084       .  S
C551        H559   1.087       .  S
C551        C552   1.345       .  D
C552        H560   1.083       .  S
C561        C569   1.487       .  S
C561        C562   1.401       .  A
C561        C566   1.409       .  A
C562        C563   1.396       .  A
C562        H571   1.084       .  S
C563        C564   1.410       .  A
C563        H572   1.081       .  S
C564        C567   1.493       .  S
C564        C565   1.404       .  A
C565        C566   1.403       .  A
C565        H573   1.083       .  S
C566        H574   1.081       .  S
C567        H575   1.087       .  S
C567        C568   1.345       .  D
C568        H576   1.085       .  S
C569        H577   1.088       .  S
C569        C570   1.344       .  D
C570        H578   1.084       .  S
C579        C587   1.482       .  S
C579        C580   1.404       .  A
C579        C584   1.404       .  A
C580        C581   1.403       .  A
C580        H589   1.083       .  S
C581        C582   1.409       .  A
C581        H590   1.080       .  S
C582        C585   1.481       .  S
C582        C583   1.402       .  A
C583        C584   1.388       .  A
C583        H591   1.084       .  S
C584        H592   1.082       .  S
C585        H593   1.087       .  S
C585        C586   1.346       .  D
C586        H594   1.084       .  S
C587        H595   1.087       .  S
C587        C588   1.344       .  D
C588        H596   1.086       .  S
C597        C605   1.483       .  S
C597        C598   1.402       .  A
C597        C602   1.408       .  A
C598        C599   1.395       .  A
C598        H607   1.084       .  S
C599        C600   1.406       .  A
C599        H608   1.081       .  S
C600        C603   1.483       .  S
C600        C601   1.404       .  A
C601        C602   1.399       .  A
C601        H609   1.083       .  S
C602        H610   1.081       .  S
C603        H611   1.087       .  S
C603        C604   1.346       .  D
C604        H612   1.085       .  S
C605        H613   1.087       .  S
C605        C606   1.345       .  D
C606        H614   1.084       .  S
C615        C623   1.480       .  S
C615        C616   1.402       .  A
C615        C620   1.406       .  A
C616        C617   1.395       .  A
C616        H625   1.084       .  S
C617        C618   1.406       .  A
C617        H626   1.081       .  S
C618        C621   1.481       .  S
C618        C619   1.403       .  A
C619        C620   1.397       .  A
C619        H627   1.084       .  S
C620        H628   1.082       .  S
C621        H629   1.088       .  S
C621        C622   1.344       .  D
C622        H630   1.084       .  S
C623        H631   1.087       .  S
C623        C624   1.345       .  D
C624        H632   1.085       .  S
C633        C641   1.484       .  S
C633        C634   1.402       .  A
C633        C638   1.408       .  A
C634        C635   1.394       .  A
C634        H643   1.084       .  S
C635        C636   1.407       .  A
C635        H644   1.081       .  S
C636        C639   1.483       .  S
C636        C637   1.403       .  A
C637        C638   1.399       .  A
C637        H645   1.083       .  S
C638        H646   1.081       .  S
C639        H647   1.087       .  S
C639        C640   1.344       .  D
C640        H648   1.085       .  S
C641        H649   1.087       .  S
C641        C642   1.345       .  D
C642        H650   1.084       .  S
C651        C659   1.479       .  S
C651        C652   1.399       .  A
C651        C656   1.409       .  A
C652        C653   1.395       .  A
C652        H661   1.083       .  S
C653        C654   1.409       .  A
C653        H662   1.082       .  S
C654        C657   1.478       .  S
C654        C655   1.399       .  A
C655        C656   1.395       .  A
C655        H663   1.083       .  S
C656        H664   1.082       .  S
C657        H665   1.087       .  S
C657        C658   1.339       .  D
C658        H666   1.086       .  S
C659        H667   1.087       .  S
C659        C660   1.339       .  D
C660        H668   1.086       .  S
C669        C677   1.481       .  S
C669        C670   1.400       .  A
C669        C674   1.409       .  A
C670        C671   1.393       .  A
C670        H679   1.084       .  S
C671        C672   1.407       .  A
C671        H680   1.082       .  S
C672        C675   1.485       .  S
C672        C673   1.404       .  A
C673        C674   1.402       .  A
C673        H681   1.083       .  S
C674        H682   1.082       .  S
C675        H683   1.087       .  S
C675        C676   1.345       .  D
C676        H684   1.086       .  S
C677        H685   1.087       .  S
C677        C678   1.344       .  D
C678        H686   1.085       .  S
C687        C695   1.477       .  S
C687        C688   1.403       .  A
C687        C692   1.404       .  A
C688        C689   1.397       .  A
C688        H697   1.083       .  S
C689        C690   1.405       .  A
C689        H698   1.083       .  S
C690        C693   1.477       .  S
C690        C691   1.402       .  A
C691        C692   1.396       .  A
C691        H699   1.083       .  S
C692        H700   1.083       .  S
C693        H701   1.088       .  S
C693        C694   1.342       .  D
C694        H702   1.086       .  S
C695        H703   1.088       .  S
C695        C696   1.344       .  D
C696        H704   1.086       .  S
C705        C713   1.477       .  S
C705        C706   1.402       .  A
C705        C710   1.405       .  A
C706        C707   1.399       .  A
C706        H715   1.083       .  S
C707        C708   1.407       .  A
C707        H716   1.083       .  S
C708        C711   1.476       .  S
C708        C709   1.400       .  A
C709        C710   1.394       .  A
C709        H717   1.083       .  S
C710        H718   1.083       .  S
C711        H719   1.088       .  S
C711        C712   1.342       .  D
C712        H720   1.086       .  S
C713        H721   1.087       .  S
C713        C714   1.342       .  D
C714        H722   1.087       .  S
C723        C731   1.481       .  S
C723        C724   1.401       .  A
C723        C728   1.407       .  A
C724        C725   1.397       .  A
C724        H733   1.084       .  S
C725        C726   1.408       .  A
C725        H734   1.081       .  S
C726        C729   1.484       .  S
C726        C727   1.403       .  A
C727        C728   1.397       .  A
C727        H735   1.083       .  S
C728        H736   1.082       .  S
C729        H737   1.087       .  S
C729        C730   1.343       .  D
C730        H738   1.085       .  S
C731        H739   1.087       .  S
C731        C732   1.343       .  D
C732        H740   1.085       .  S
C741        C749   1.483       .  S
C741        C742   1.403       .  A
C741        C746   1.409       .  A
C742        C743   1.399       .  A
C742        H751   1.083       .  S
C743        C744   1.407       .  A
C743        H752   1.082       .  S
C744        C747   1.477       .  S
C744        C745   1.399       .  A
C745        C746   1.391       .  A
C745        H753   1.084       .  S
C746        H754   1.080       .  S
C747        H755   1.088       .  S
C747        C748   1.342       .  D
C748        H756   1.085       .  S
C749        H757   1.087       .  S
C749        C750   1.343       .  D
C750        H758   1.084       .  S
C759        C767   1.489       .  S
C759        C760   1.404       .  A
C759        C764   1.410       .  A
C760        C761   1.400       .  A
C760        H769   1.083       .  S
C761        C762   1.408       .  A
C761        H770   1.081       .  S
C762        C765   1.483       .  S
C762        C763   1.399       .  A
C763        C764   1.393       .  A
C763        H771   1.084       .  S
C764        H772   1.079       .  S
C765        H773   1.087       .  S
C765        C766   1.342       .  D
C766        H774   1.085       .  S
C767        H775   1.087       .  S
C767        C768   1.344       .  D
C768        H776   1.082       .  S
C777        C785   1.479       .  S
C777        C778   1.401       .  A
C777        C782   1.407       .  A
C778        C779   1.395       .  A
C778        H787   1.084       .  S
C779        C780   1.406       .  A
C779        H788   1.082       .  S
C780        C783   1.478       .  S
C780        C781   1.401       .  A
C781        C782   1.396       .  A
C781        H789   1.083       .  S
C782        H790   1.082       .  S
C783        H791   1.087       .  S
C783        C784   1.342       .  D
C784        H792   1.086       .  S
C785        H793   1.088       .  S
C785        C786   1.342       .  D
C786        H794   1.085       .  S
C795        C803   1.480       .  S
C795        C796   1.400       .  A
C795        C800   1.408       .  A
C796        C797   1.397       .  A
C796        H805   1.083       .  S
C797        C798   1.409       .  A
C797        H806   1.082       .  S
C798        C801   1.483       .  S
C798        C799   1.401       .  A
C799        C800   1.397       .  A
C799        H807   1.083       .  S
C800        H808   1.082       .  S
C801        H809   1.087       .  S
C801        C802   1.342       .  D
C802        H810   1.086       .  S
C803        H811   1.087       .  S
C803        C804   1.342       .  D
C804        H812   1.086       .  S
C813        C821   1.486       .  S
C813        C814   1.401       .  A
C813        C818   1.408       .  A
C814        C815   1.396       .  A
C814        H823   1.084       .  S
C815        C816   1.409       .  A
C815        H824   1.081       .  S
C816        C819   1.489       .  S
C816        C817   1.404       .  A
C817        C818   1.401       .  A
C817        H825   1.083       .  S
C818        H826   1.081       .  S
C819        H827   1.087       .  S
C819        C820   1.345       .  D
C820        H828   1.084       .  S
C821        H829   1.087       .  S
C821        C822   1.344       .  D
C822        H830   1.085       .  S
C831        C839   1.485       .  S
C831        C832   1.402       .  A
C831        C836   1.408       .  A
C832        C833   1.398       .  A
C832        H841   1.083       .  S
C833        C834   1.407       .  A
C833        H842   1.082       .  S
C834        C837   1.486       .  S
C834        C835   1.403       .  A
C835        C836   1.399       .  A
C835        H843   1.083       .  S
C836        H844   1.082       .  S
C837        H845   1.087       .  S
C837        C838   1.344       .  D
C838        H846   1.086       .  S
C839        H847   1.087       .  S
C839        C840   1.344       .  D
C840        H848   1.085       .  S
C849        C857   1.481       .  S
C849        C850   1.401       .  A
C849        C854   1.410       .  A
C850        C851   1.393       .  A
C850        H859   1.084       .  S
C851        C852   1.407       .  A
C851        H860   1.082       .  S
C852        C855   1.481       .  S
C852        C853   1.401       .  A
C853        C854   1.399       .  A
C853        H861   1.083       .  S
C854        H862   1.081       .  S
C855        H863   1.087       .  S
C855        C856   1.342       .  D
C856        H864   1.086       .  S
C857        H865   1.088       .  S
C857        C858   1.342       .  D
C858        H866   1.085       .  S
C867        C875   1.482       .  S
C867        C868   1.400       .  A
C867        C872   1.410       .  A
C868        C869   1.391       .  A
C868        H877   1.084       .  S
C869        C870   1.407       .  A
C869        H878   1.082       .  S
C870        C873   1.480       .  S
C870        C871   1.401       .  A
C871        C872   1.399       .  A
C871        H879   1.083       .  S
C872        H880   1.080       .  S
C873        H881   1.087       .  S
C873        C874   1.340       .  D
C874        H882   1.086       .  S
C875        H883   1.088       .  S
C875        C876   1.342       .  D
C876        H884   1.083       .  S
C885        C893   1.480       .  S
C885        C886   1.401       .  A
C885        C890   1.405       .  A
C886        C887   1.400       .  A
C886        H895   1.083       .  S
C887        C888   1.411       .  A
C887        H896   1.079       .  S
C888        C891   1.487       .  S
C888        C889   1.402       .  A
C889        C890   1.393       .  A
C889        H897   1.084       .  S
C890        H898   1.082       .  S
C891        H899   1.087       .  S
C891        C892   1.343       .  D
C892        H900   1.082       .  S
C893        H901   1.087       .  S
C893        C894   1.344       .  D
C894        H902   1.086       .  S
C903        C911   1.482       .  S
C903        C904   1.401       .  A
C903        C908   1.407       .  A
C904        C905   1.398       .  A
C904        H913   1.083       .  S
C905        C906   1.409       .  A
C905        H914   1.082       .  S
C906        C909   1.485       .  S
C906        C907   1.402       .  A
C907        C908   1.398       .  A
C907        H915   1.083       .  S
C908        H916   1.082       .  S
C909        H917   1.087       .  S
C909        C910   1.344       .  D
C910        H918   1.085       .  S
C911        H919   1.087       .  S
C911        C912   1.343       .  D
C912        H920   1.086       .  S
C921        C929   1.483       .  S
C921        C922   1.401       .  A
C921        C926   1.407       .  A
C922        C923   1.396       .  A
C922        H931   1.084       .  S
C923        C924   1.409       .  A
C923        H932   1.080       .  S
C924        C927   1.487       .  S
C924        C925   1.403       .  A
C925        C926   1.398       .  A
C925        H933   1.083       .  S
C926        H934   1.082       .  S
C927        H935   1.087       .  S
C927        C928   1.344       .  D
C928        H936   1.084       .  S
C929        H937   1.087       .  S
C929        C930   1.343       .  D
C930        H938   1.085       .  S
C939        C947   1.482       .  S
C939        C940   1.403       .  A
C939        C944   1.408       .  A
C940        C941   1.395       .  A
C940        H949   1.084       .  S
C941        C942   1.406       .  A
C941        H950   1.082       .  S
C942        C945   1.479       .  S
C942        C943   1.401       .  A
C943        C944   1.395       .  A
C943        H951   1.084       .  S
C944        H952   1.080       .  S
C945        H953   1.087       .  S
C945        C946   1.343       .  D
C946        H954   1.085       .  S
C947        H955   1.087       .  S
C947        C948   1.343       .  D
C948        H956   1.083       .  S
C957        C965   1.484       .  S
C957        C958   1.402       .  A
C957        C962   1.410       .  A
C958        C959   1.396       .  A
C958        H967   1.083       .  S
C959        C960   1.407       .  A
C959        H968   1.082       .  S
C960        C963   1.480       .  S
C960        C961   1.400       .  A
C961        C962   1.395       .  A
C961        H969   1.084       .  S
C962        H970   1.080       .  S
C963        H971   1.087       .  S
C963        C964   1.341       .  D
C964        H972   1.086       .  S
C965        H973   1.087       .  S
C965        C966   1.342       .  D
C966        H974   1.084       .  S
C975        C983   1.485       .  S
C975        C976   1.403       .  A
C975        C980   1.407       .  A
C976        C977   1.399       .  A
C976        H985   1.083       .  S
C977        C978   1.409       .  A
C977        H986   1.080       .  S
C978        C981   1.486       .  S
C978        C979   1.402       .  A
C979        C980   1.395       .  A
C979        H987   1.084       .  S
C980        H988   1.081       .  S
C981        H989   1.087       .  S
C981        C982   1.345       .  D
C982        H990   1.084       .  S
C983        H991   1.087       .  S
C983        C984   1.345       .  D
C984        H992   1.084       .  S
C993       C1001   1.483       .  S
C993        C994   1.404       .  A
C993        C998   1.407       .  A
C994        C995   1.400       .  A
C994       H1003   1.083       .  S
C995        C996   1.407       .  A
C995       H1004   1.082       .  S
C996        C999   1.479       .  S
C996        C997   1.400       .  A
C997        C998   1.392       .  A
C997       H1005   1.084       .  S
C998       H1006   1.081       .  S
C999       H1007   1.087       .  S
C999       C1000   1.344       .  D
C1000      H1008   1.085       .  S
C1001      H1009   1.087       .  S
C1001      C1002   1.345       .  D
C1002      H1010   1.084       .  S
C1011      C1019   1.479       .  S
C1011      C1012   1.402       .  A
C1011      C1016   1.408       .  A
C1012      C1013   1.394       .  A
C1012      H1021   1.084       .  S
C1013      C1014   1.405       .  A
C1013      H1022   1.082       .  S
C1014      C1017   1.476       .  S
C1014      C1015   1.401       .  A
C1015      C1016   1.396       .  A
C1015      H1023   1.084       .  S
C1016      H1024   1.081       .  S
C1017      H1025   1.088       .  S
C1017      C1018   1.342       .  D
C1018      H1026   1.086       .  S
C1019      H1027   1.088       .  S
C1019      C1020   1.342       .  D
C1020      H1028   1.085       .  S
