geometry optimzed in LAMMPS
_audit_creation_date              2020-12-01 
_audit_creation_method            'lammps2cif' 
_symmetry_space_group_name_H-M    'P1' 
_symmetry_Int_Tables_number       1 
_symmetry_cell_setting            triclinic 
loop_ 
_symmetry_equiv_pos_as_xyz 
  x,y,z 
_cell_length_a                    26.47150214 
_cell_length_b                    26.56982863140989 
_cell_length_c                    29.050156677289014 
_cell_angle_alpha                 89.98997568088569 
_cell_angle_beta                  89.99623129920619 
_cell_angle_gamma                 89.97122223700548 
loop_ 
_atom_site_label 
_atom_site_type_symbol 
_atom_site_fract_x 
_atom_site_fract_y 
_atom_site_fract_z 
_atom_site_charge 
C1          C  0.37933647  0.40370009  0.39815089     0.44500
N2          N  0.42950842  0.41686664  0.45445432     0.03400
C3          C  0.44767099  0.63047329  0.58968982    -0.04500
H4          H  0.47410067  0.66060342  0.41160330     0.08900
C5          C  0.62730511  0.54947081  0.41977546    -0.04800
Co6        Co  0.40477372  0.51195115  0.50458141     0.74200
N7          N  0.45256719  0.59767208  0.45447631    -0.24000
Co8        Co  0.50824391  0.59190351  0.50476246     0.74100
C9          C  0.61315532  0.59653546  0.39765646     0.44600
N10         N  0.58058142  0.43363612  0.45450400     0.03000
N11         N  0.56374864  0.58386995  0.45453674     0.03100
N12         N  0.38047167  0.57767223  0.58831622    -0.44900
H13         H  0.33499820  0.47661514  0.41207899     0.08900
N14         N  0.41315696  0.56722602  0.45419641     0.03400
N15         N  0.56365949  0.58386984  0.55510189     0.03100
C16         C  0.61322915  0.59672064  0.61182181     0.44700
N17         N  0.54110337  0.40325675  0.45457670    -0.23500
C18         C  0.36517981  0.45125987  0.58909226    -0.04400
N19         N  0.41881906  0.38422209  0.42139281    -0.44600
N20         N  0.57396717  0.61630244  0.58840532    -0.44800
C21         C  0.37884245  0.40401140  0.61113268     0.44500
N22         N  0.41289323  0.56729772  0.55490518     0.03400
N23         N  0.54103484  0.40325162  0.55503794    -0.23500
N24         N  0.39887132  0.45611366  0.45450342    -0.24000
N25         N  0.58053435  0.43360445  0.55513302     0.03000
H26         H  0.51993269  0.34004633  0.59774376     0.08900
H27         H  0.65783272  0.52396824  0.59788309     0.08900
N28         N  0.45234764  0.59769059  0.55485673    -0.24000
N29         N  0.59441334  0.54465842  0.45461966    -0.23600
N30         N  0.42935503  0.41703147  0.55504027     0.03400
C31         C  0.40105777  0.61652027  0.39718882     0.44800
C32         C  0.54584004  0.37044994  0.41975530    -0.04900
N33         N  0.59437032  0.54468613  0.55502897    -0.23600
H34         H  0.65770126  0.52375890  0.41163161     0.08900
N35         N  0.38098045  0.57756255  0.42057256    -0.44900
H36         H  0.51992688  0.34027588  0.41164048     0.08900
C37         C  0.59320479  0.38391720  0.61175303     0.44600
C38         C  0.36554964  0.45100969  0.42002881    -0.04400
Co39       Co  0.48511427  0.40897960  0.50479424     0.73800
N40         N  0.61307623  0.42317662  0.42115351    -0.44600
C41         C  0.40040212  0.61661175  0.61179340     0.44900
N42         N  0.41844322  0.38445543  0.58810645    -0.44600
Co43       Co  0.58865060  0.48896001  0.50482979     0.73900
C44         C  0.62735895  0.54960927  0.58978334    -0.04900
C45         C  0.44812097  0.63044094  0.41960279    -0.04500
N46         N  0.39869713  0.45626620  0.55476382    -0.24000
N47         N  0.57399589  0.61621905  0.42114056    -0.44800
H48         H  0.47360291  0.66063022  0.59782394     0.08900
C49         C  0.54580931  0.37029000  0.58973280    -0.04900
Cl50       Cl  0.49669022  0.50042701  0.50476252    -0.47900
C51         C  0.59319017  0.38419813  0.39767954     0.44600
H52         H  0.33454829  0.47685915  0.59680331     0.08900
N53         N  0.61309051  0.42297981  0.58838639    -0.44600
C54         C  0.74251957  0.73132056  0.76748332     0.88500
C55         C  0.77803497  0.70199682  0.79965145    -0.51700
C56         C  0.80601641  0.73248722  0.82752432     0.11500
C57         C  0.79605634  0.78888640  0.82075625     0.22400
C58         C  0.71044981  0.76469181  0.79935450    -0.52400
C59         C  0.73881104  0.79472875  0.82732091     0.11600
C60         C  0.77682796  0.76781444  0.74108782    -0.52000
C61         C  0.80480726  0.79783681  0.76918990     0.12100
H62         H  0.78094516  0.66121613  0.80016914     0.16600
H63         H  0.81904327  0.81356623  0.84348475     0.02400
H64         H  0.66941516  0.76450909  0.79981811     0.16900
H65         H  0.77896606  0.76960387  0.70376367     0.16700
C66         C  0.72780930  0.25173693  0.76552506     0.88500
C67         C  0.76404444  0.21816348  0.73798610    -0.51700
C68         C  0.79523999  0.19032999  0.76518148     0.11500
C69         C  0.78753166  0.19828077  0.81695667     0.22400
C70         C  0.69959702  0.21576527  0.79805456    -0.52400
C71         C  0.73125914  0.18786377  0.82496512     0.11600
C72         C  0.76190305  0.28356693  0.79694026    -0.52000
C73         C  0.79309379  0.25519343  0.82385422     0.12100
H74         H  0.76498697  0.21658518  0.70061648     0.16600
H75         H  0.81313620  0.17534970  0.83892082     0.02400
H76         H  0.65871701  0.21269515  0.79967309     0.16900
H77         H  0.76134114  0.32443469  0.79789396     0.16700
C78         C  0.26501608  0.74725592  0.76598309     0.88500
C79         C  0.29382501  0.78389369  0.79737987    -0.51700
C80         C  0.26277494  0.81162941  0.82497852     0.11500
C81         C  0.20635473  0.80025530  0.81879092     0.22400
C82         C  0.23254115  0.71516043  0.79853875    -0.52400
C83         C  0.20186066  0.74325575  0.82614647     0.11600
C84         C  0.22728559  0.78009500  0.73930324    -0.52000
C85         C  0.19661315  0.80773983  0.76720466     0.12100
H86         H  0.33468708  0.78766681  0.79762710     0.16600
H87         H  0.18120618  0.82295677  0.84136879     0.02400
H88         H  0.23346424  0.67429175  0.79944817     0.16900
H89         H  0.22507024  0.78140628  0.70197324     0.16700
C90         C  0.24828060  0.26729866  0.76450964     0.88500
C91         C  0.21193418  0.29533866  0.79680893    -0.51700
C92         C  0.18410197  0.26382962  0.82381600     0.11500
C93         C  0.19506220  0.20776193  0.81627367     0.22400
C94         C  0.28050647  0.23381388  0.79611984    -0.52400
C95         C  0.25231420  0.20265849  0.82317250     0.11600
C96         C  0.21479176  0.23075386  0.73716987    -0.52000
C97         C  0.18690640  0.19974041  0.76454277     0.12100
H98         H  0.20833341  0.33604808  0.79801703     0.16600
H99         H  0.17224634  0.18229639  0.83842953     0.02400
H100        H  0.32152428  0.23471266  0.79707000     0.16900
H101        H  0.21291132  0.22986216  0.69981720     0.16700
N102        N  0.91724898  0.99702777  0.72431123    -0.34600
N103        N  0.99703454  0.92158459  0.72657828    -0.55100
N104        N  0.07343322  0.00045390  0.72338005    -0.34600
N105        N  0.99375142  0.07601298  0.72529053    -0.55100
C106        C  0.89092383  0.95568684  0.73710481     0.29000
C107        C  0.88915673  0.03759689  0.73599804     0.29000
C108        C  0.10206674  0.96014227  0.73489106     0.29000
C109        C  0.10030719  0.04216162  0.73415650     0.29000
C110        C  0.95675514  0.89086625  0.72194492     0.37600
C111        C  0.03850212  0.89253875  0.72143878     0.37600
C112        C  0.95217169  0.10474293  0.71950521     0.37600
C113        C  0.03390669  0.10665906  0.71943967     0.39800
C114        C  0.84514682  0.97015814  0.75629881    -0.19900
C115        C  0.84403085  0.02182967  0.75560439    -0.19900
C116        C  0.14813319  0.97647325  0.75210656    -0.19800
C117        C  0.14701690  0.02815042  0.75165786    -0.19800
C118        C  0.97265520  0.84195229  0.71369309    -0.20900
C119        C  0.02453306  0.84300522  0.71341777    -0.20900
C120        C  0.96591073  0.15400587  0.70990543    -0.20900
C121        C  0.01779164  0.15523603  0.70993661    -0.20900
C122        C  0.90649703  0.90528019  0.73102902    -0.16300
C123        C  0.90251461  0.08837774  0.72846135    -0.16300
C124        C  0.08440809  0.09249412  0.72781720    -0.16300
C125        C  0.08831809  0.90904776  0.72956212    -0.16300
H126        H  0.81567459  0.94604448  0.76973505     0.16700
H127        H  0.81353981  0.04509905  0.76842036     0.16700
H128        H  0.17930478  0.95357717  0.76408881     0.16700
H129        H  0.17715744  0.05258414  0.76322838     0.16700
H130        H  0.94935379  0.80873759  0.70992248     0.14900
H131        H  0.04914471  0.81076476  0.70934181     0.14900
H132        H  0.94115202  0.18598262  0.70490214     0.14900
H133        H  0.04097254  0.18832892  0.70487622     0.14900
H134        H  0.95152388  0.99752959  0.70693349     0.28200
H135        H  0.03828718  0.99954464  0.70759454     0.28200
C136        C  0.74354209  0.73214300  0.24346108     0.88500
C137        C  0.77767194  0.76853443  0.27019362    -0.51700
C138        C  0.80566358  0.79887816  0.24235142     0.11500
C139        C  0.79711917  0.79027578  0.19071144     0.22400
C140        C  0.71150288  0.76568957  0.21170903    -0.52400
C141        C  0.73988916  0.79603666  0.18403387     0.11600
C142        C  0.77924274  0.70317425  0.21120510    -0.52000
C143        C  0.80725291  0.73395436  0.18361463     0.12100
H144        H  0.77964324  0.77005710  0.30753257     0.16600
H145        H  0.82010932  0.81518867  0.16818952     0.02400
H146        H  0.67047015  0.76538980  0.21110739     0.16900
H147        H  0.78222749  0.66240347  0.21040538     0.16700
C148        C  0.26616324  0.74804972  0.24313997     0.88500
C149        C  0.23383060  0.71609228  0.21033711    -0.51700
C150        C  0.20318732  0.74431057  0.18277277     0.11500
C151        C  0.20758540  0.80125989  0.19040580     0.22400
C152        C  0.29501399  0.78489252  0.21196750    -0.52400
C153        C  0.26401275  0.81271436  0.18439797     0.11600
C154        C  0.22826572  0.78070214  0.26986101    -0.52000
C155        C  0.19761500  0.80845712  0.24199364     0.12100
H156        H  0.23481177  0.67523088  0.20924840     0.16600
H157        H  0.18249186  0.82404497  0.16784412     0.02400
H158        H  0.33587916  0.78864998  0.21176216     0.16900
H159        H  0.22591570  0.78178740  0.30718866     0.16700
N160        N  0.00671115  0.69309228  0.07624647    -0.34600
N161        N  0.92868269  0.69371599  0.00528684    -0.55100
N162        N  0.00596008  0.69157392  0.93366388    -0.34600
N163        N  0.08395029  0.69579262  0.00462923    -0.55100
C164        C  0.96538322  0.70510627  0.10145100     0.29000
C165        C  0.04777309  0.70662195  0.10112565     0.29000
C166        C  0.96438663  0.70306565  0.90859063     0.29000
C167        C  0.04677043  0.70455234  0.90819672     0.29000
C168        C  0.89918969  0.68712558  0.04275376     0.37600
C169        C  0.89879144  0.68644492  0.96819463     0.37600
C170        C  0.11437208  0.69208062  0.04181474     0.37600
C171        C  0.11396671  0.69133193  0.96724314     0.37600
C172        C  0.98040293  0.72558239  0.14319812    -0.19900
C173        C  0.03231873  0.72652127  0.14300373    -0.19900
C174        C  0.97899594  0.72255509  0.86632103    -0.19800
C175        C  0.03090338  0.72346535  0.86605898    -0.19800
C176        C  0.85022965  0.67564760  0.02942378    -0.20900
C177        C  0.84997415  0.67523445  0.98213609    -0.20900
C178        C  0.16406410  0.68526478  0.02799251    -0.20900
C179        C  0.16380815  0.68479210  0.98073508    -0.20900
C180        C  0.91455714  0.69700926  0.08836397    -0.16300
C181        C  0.09879723  0.70073692  0.08760075    -0.16300
C182        C  0.09792765  0.69916548  0.92146704    -0.16300
C183        C  0.91368168  0.69544996  0.92229964    -0.16300
H184        H  0.95646888  0.73882265  0.17088278     0.16700
H185        H  0.05595500  0.74067796  0.17050868     0.16700
H186        H  0.95479962  0.73519726  0.83859067     0.16700
H187        H  0.05425925  0.73699005  0.83808592     0.16700
H188        H  0.81781357  0.66959145  0.05145161     0.14900
H189        H  0.81732818  0.66878654  0.96049249     0.14900
H190        H  0.19724013  0.68266717  0.04964943     0.14900
H191        H  0.19674963  0.68175240  0.95882605     0.14900
H192        H  0.00689487  0.67491271  0.04462444     0.28200
H193        H  0.00646529  0.67418226  0.96565501     0.28200
C194        C  0.24940271  0.26853198  0.24316782     0.88500
C195        C  0.28150668  0.23493361  0.21153675    -0.51700
C196        C  0.25321102  0.20379346  0.18455424     0.11500
C197        C  0.19598468  0.20902662  0.19154541     0.22400
C198        C  0.21305301  0.29660832  0.21087405    -0.52400
C199        C  0.18510231  0.26511892  0.18394161     0.11600
C200        C  0.21587867  0.23205851  0.27059047    -0.52000
C201        C  0.18793094  0.20101998  0.24329698     0.12100
H202        H  0.32252486  0.23572795  0.21054693     0.16600
H203        H  0.17309111  0.18356996  0.16946064     0.02400
H204        H  0.20954489  0.33732402  0.20960784     0.16900
H205        H  0.21413683  0.23113572  0.30794927     0.16700
N206        N  0.91824922  0.99846670  0.28592398    -0.34600
N207        N  0.99506477  0.07717888  0.28365141    -0.55100
N208        N  0.07453911  0.00134690  0.28504104    -0.34600
N209        N  0.99785947  0.92271660  0.28322032    -0.55100
C210        C  0.89019430  0.03900876  0.27403180     0.29000
C211        C  0.89168776  0.95706060  0.27370726     0.29000
C212        C  0.10144586  0.04292126  0.27387567     0.29000
C213        C  0.10290094  0.96085995  0.27346196     0.29000
C214        C  0.95361778  0.10615856  0.28928212     0.37600
C215        C  0.03538772  0.10777454  0.28879064     0.37600
C216        C  0.95753549  0.89223815  0.28883855     0.37600
C217        C  0.03931842  0.89360970  0.28826270     0.37600
C218        C  0.84485061  0.02315676  0.25491215    -0.19900
C219        C  0.84579647  0.97147103  0.25470646    -0.19900
C220        C  0.14790283  0.02865274  0.25598773    -0.19800
C221        C  0.14881776  0.97695151  0.25571766    -0.19800
C222        C  0.96761453  0.15552429  0.29806950    -0.20900
C223        C  0.01949606  0.15655958  0.29771078    -0.20900
C224        C  0.97340120  0.84342465  0.29764052    -0.20900
C225        C  0.02529564  0.84428539  0.29722273    -0.20900
C226        C  0.90380925  0.08986059  0.28084907    -0.16300
C227        C  0.90719109  0.90665858  0.28009444    -0.16300
C228        C  0.08909315  0.90983207  0.27934916    -0.16300
C229        C  0.08580682  0.09335428  0.28022223    -0.16300
H230        H  0.81434190  0.04637709  0.24205205     0.16700
H231        H  0.81615395  0.94730524  0.24167798     0.16700
H232        H  0.17800639  0.05293446  0.24406184     0.16700
H233        H  0.17977984  0.95388198  0.24356505     0.16700
H234        H  0.94301744  0.18768774  0.30271161     0.14900
H235        H  0.04281090  0.18967351  0.30208794     0.14900
H236        H  0.95003639  0.81037864  0.30224887     0.14900
H237        H  0.04986112  0.81204389  0.30151635     0.14900
H238        H  0.95270248  0.99902588  0.30301353     0.28200
H239        H  0.03958288  0.00065135  0.30118990     0.28200
N240        N  0.30457440  0.93214971  0.00435616    -0.34600
N241        N  0.30176238  0.01026065  0.07514032    -0.55100
N242        N  0.30349077  0.08819202  0.00400281    -0.34600
N243        N  0.30101777  0.00975105  0.93323066    -0.55100
C244        C  0.29464635  0.90386813  0.04205935     0.29000
C245        C  0.29420827  0.90362017  0.96691053     0.29000
C246        C  0.29163180  0.11606341  0.04151989     0.29000
C247        C  0.29139339  0.11579973  0.96638869     0.29000
C248        C  0.30694884  0.96959044  0.10269209     0.37600
C249        C  0.30600653  0.05119159  0.10246755     0.37600
C250        C  0.30598072  0.96892647  0.90584646     0.37600
C251        C  0.30528396  0.05051943  0.90570423     0.37600
C252        C  0.27895848  0.85633472  0.02833954    -0.19900
C253        C  0.27867621  0.85618214  0.98104597    -0.19900
C254        C  0.27307281  0.16247700  0.02750918    -0.19800
C255        C  0.27292428  0.16231235  0.98021666    -0.19800
C256        C  0.31442863  0.98477694  0.14786078    -0.20900
C257        C  0.31383965  0.03645457  0.14771826    -0.20900
C258        C  0.31330984  0.98384435  0.86058014    -0.20900
C259        C  0.31289309  0.03552434  0.86049088    -0.20900
C260        C  0.30005363  0.91918656  0.08850099    -0.16300
C261        C  0.29912751  0.91862263  0.92033828    -0.16300
C262        C  0.29693636  0.10067434  0.91991712    -0.16300
C263        C  0.29744439  0.10125414  0.08805696    -0.16300
H264        H  0.26849110  0.82495675  0.05010390     0.16700
H265        H  0.26795720  0.82466830  0.95955989     0.16700
H266        H  0.26037096  0.19319582  0.04908017     0.16700
H267        H  0.26008491  0.19288151  0.95852710     0.16700
H268        H  0.31854795  0.96109788  0.17795515     0.14900
H269        H  0.31737063  0.06040830  0.17768392     0.14900
H270        H  0.31727777  0.95999097  0.83059090     0.14900
H271        H  0.31641173  0.05931484  0.83040692     0.14900
H272        H  0.31919812  0.96831902  0.00419611     0.28200
H273        H  0.32030226  0.05291236  0.00404051     0.28200
N274        N  0.90856912  0.30558160  0.00448100    -0.34600
N275        N  0.98735436  0.30368596  0.07484101    -0.55100
N276        N  0.06542777  0.30678581  0.00396888    -0.34600
N277        N  0.98680939  0.30266879  0.93364469    -0.55100
C278        C  0.88120326  0.29318030  0.04217792     0.29000
C279        C  0.88091470  0.29262509  0.96712267     0.29000
C280        C  0.09361764  0.29554640  0.04145233     0.29000
C281        C  0.09332285  0.29506890  0.96642904     0.29000
C282        C  0.94648892  0.30960283  0.10218387     0.37600
C283        C  0.02833606  0.31017494  0.10192738     0.37600
C284        C  0.94574103  0.30806945  0.90647916     0.37600
C285        C  0.02756393  0.30870518  0.90618954     0.37600
C286        C  0.83507717  0.27329590  0.02857920    -0.19900
C287        C  0.83489377  0.27295387  0.98126164    -0.19900
C288        C  0.14051043  0.27776174  0.02752642    -0.19800
C289        C  0.14032706  0.27746722  0.98023448    -0.19800
C290        C  0.96156559  0.31988183  0.14691381    -0.20900
C291        C  0.01344620  0.32022685  0.14675208    -0.20900
C292        C  0.96045939  0.31753221  0.86149191    -0.20900
C293        C  0.01232579  0.31791213  0.86130704    -0.20900
C294        C  0.89625551  0.30009364  0.08846127    -0.16300
C295        C  0.89562382  0.29882677  0.92066463    -0.16300
C296        C  0.07800144  0.30063900  0.92008880    -0.16300
C297        C  0.07865819  0.30172267  0.08783315    -0.16300
H298        H  0.80479035  0.25995318  0.05043935     0.16700
H299        H  0.80444524  0.25929771  0.95976074     0.16700
H300        H  0.17159853  0.26582586  0.04914335     0.16700
H301        H  0.17124240  0.26525195  0.95854124     0.16700
H302        H  0.93768508  0.32519699  0.17676934     0.14900
H303        H  0.03747146  0.32591171  0.17644665     0.14900
H304        H  0.93635217  0.32228504  0.83170896     0.14900
H305        H  0.03610801  0.32306303  0.83136465     0.14900
H306        H  0.94341353  0.32342933  0.00425532     0.28200
H307        H  0.02982489  0.32306133  0.00399081     0.28200
C308        C  0.72845909  0.25269665  0.24371261     0.88500
C309        C  0.76238650  0.28482590  0.21236304    -0.51700
C310        C  0.79376515  0.25671865  0.18538543     0.11500
C311        C  0.78847824  0.19975278  0.19210511     0.22400
C312        C  0.70044388  0.21669156  0.21107633    -0.52400
C313        C  0.73225313  0.18909277  0.18404281     0.11600
C314        C  0.76490649  0.21920720  0.27113511    -0.52000
C315        C  0.79626252  0.19163518  0.24385804     0.12100
H316        H  0.76163085  0.32569370  0.21154738     0.16600
H317        H  0.81420031  0.17704647  0.17006525     0.02400
H318        H  0.65957936  0.21342724  0.20943995     0.16900
H319        H  0.76588636  0.21751719  0.30849931     0.16700
N320        N  0.69154054  0.99134249  0.07621929    -0.34600
N321        N  0.69210472  0.91382046  0.00544306    -0.55100
N322        N  0.69011960  0.99042490  0.93376418    -0.34600
N323        N  0.69406854  0.06796814  0.00459540    -0.55100
C324        C  0.70509330  0.95036545  0.10099798     0.29000
C325        C  0.70577556  0.03238107  0.10055177     0.29000
C326        C  0.70365375  0.94914974  0.90940005     0.29000
C327        C  0.70424530  0.03115550  0.90892860     0.29000
C328        C  0.68487614  0.88465784  0.04295742     0.37600
C329        C  0.68428661  0.88418202  0.96835192     0.37600
C330        C  0.68737866  0.09778965  0.04174787     0.37600
C331        C  0.68666754  0.09728134  0.96721550     0.37600
C332        C  0.72755899  0.96558569  0.14187009    -0.19900
C333        C  0.72796315  0.01734564  0.14159243    -0.19900
C334        C  0.72595104  0.96386569  0.86829003    -0.19800
C335        C  0.72629077  0.01562060  0.86798654    -0.19800
C336        C  0.67215068  0.83617010  0.02968042    -0.20900
C337        C  0.67177890  0.83586840  0.98231851    -0.20900
C338        C  0.67568802  0.14637834  0.02794774    -0.20900
C339        C  0.67522598  0.14605418  0.98063153    -0.20900
C340        C  0.69624016  0.89975769  0.08835068    -0.16300
C341        C  0.69762182  0.08292372  0.08739840    -0.16300
C342        C  0.69627531  0.08185670  0.92162154    -0.16300
C343        C  0.69505629  0.89869278  0.92268090    -0.16300
H344        H  0.74228615  0.94190702  0.16907111     0.16700
H345        H  0.74308478  0.04115849  0.16849817     0.16700
H346        H  0.74069639  0.93985585  0.84134697     0.16700
H347        H  0.74136952  0.03910220  0.84080995     0.16700
H348        H  0.66555899  0.80403669  0.05178518     0.14900
H349        H  0.66485358  0.80345891  0.96065171     0.14900
H350        H  0.66965035  0.17892674  0.04966917     0.14900
H351        H  0.66878175  0.17830739  0.95862869     0.14900
H352        H  0.67159064  0.99135210  0.04540435     0.28200
H353        H  0.67033661  0.99081969  0.96467992     0.28200
C354        C  0.70516807  0.12178016  0.12174904    -0.11200
C355        C  0.71519757  0.15302825  0.15042843    -0.12800
C356        C  0.82885978  0.27796521  0.15287116    -0.11200
C357        C  0.85916687  0.29074951  0.12418507    -0.12800
C358        C  0.83367506  0.15767407  0.26173722    -0.11200
C359        C  0.86554725  0.12773351  0.27284192    -0.12800
C360        C  0.14793220  0.28255086  0.15143176    -0.11200
C361        C  0.11640662  0.29349529  0.12320113    -0.12800
C362        C  0.28771612  0.13864592  0.12337729    -0.11200
C363        C  0.27459228  0.16892899  0.15191010    -0.12800
C364        C  0.12259307  0.13276235  0.27207551    -0.11200
C365        C  0.15288148  0.16442477  0.26107950    -0.12800
C366        C  0.13757594  0.71033904  0.12174815    -0.11200
C367        C  0.16854219  0.72311547  0.14983986    -0.12800
C368        C  0.29273535  0.88137594  0.12394091    -0.11200
C369        C  0.28209341  0.84985488  0.15220982    -0.12800
C370        C  0.15930344  0.84206337  0.25921698    -0.11200
C371        C  0.12721942  0.87185192  0.27046534    -0.12800
C372        C  0.84383563  0.71575753  0.15083765    -0.11200
C373        C  0.87556336  0.70486839  0.12273468    -0.12800
C374        C  0.71859329  0.83055436  0.15097944    -0.11200
C375        C  0.70560014  0.86104857  0.12255041    -0.12800
C376        C  0.87065024  0.86733065  0.27118588    -0.11200
C377        C  0.84067166  0.83563990  0.25972563    -0.12800
C378        C  0.15154291  0.16345515  0.74683102    -0.11200
C379        C  0.12106123  0.13201392  0.73581988    -0.12800
C380        C  0.27383778  0.16797074  0.85586060    -0.11200
C381        C  0.28710276  0.13785282  0.88446627    -0.12800
C382        C  0.14696852  0.28123639  0.85632526    -0.11200
C383        C  0.11553979  0.29222793  0.88460491    -0.12800
C384        C  0.16719306  0.72184474  0.85892535    -0.11200
C385        C  0.13637637  0.70879875  0.88703936    -0.12800
C386        C  0.12654907  0.87128248  0.73856442    -0.11200
C387        C  0.15852616  0.84149989  0.74996364    -0.12800
C388        C  0.28079715  0.84887548  0.85709095    -0.11200
C389        C  0.29152460  0.88057562  0.88516172    -0.12800
C390        C  0.71401185  0.15162960  0.85833321    -0.11200
C391        C  0.70383778  0.12036308  0.88695108    -0.12800
C392        C  0.83240124  0.15621665  0.74722083    -0.11200
C393        C  0.86419522  0.12619467  0.73620719    -0.12800
C394        C  0.85830979  0.28905584  0.88526348    -0.11200
C395        C  0.82808593  0.27618384  0.85656108    -0.12800
C396        C  0.71745242  0.82906114  0.86049985    -0.11200
C397        C  0.70436879  0.85958644  0.88886069    -0.12800
C398        C  0.84251645  0.71397470  0.86022312    -0.11200
C399        C  0.87434178  0.70304007  0.88821475    -0.12800
C400        C  0.84004820  0.83447198  0.75205512    -0.11200
C401        C  0.87008681  0.86601291  0.74043645    -0.12800
C402        C  0.63975218  0.62240950  0.64786700    -0.16500
C403        C  0.66229376  0.64543631  0.67706709     0.07600
C404        C  0.68911613  0.67380554  0.70999312     0.09500
C405        C  0.71266038  0.69912421  0.73686811    -0.17300
C406        C  0.69457700  0.28175057  0.73588654    -0.16500
C407        C  0.66918280  0.30588625  0.70945276     0.07600
C408        C  0.64132589  0.33365763  0.67674067     0.09500
C409        C  0.61879479  0.35694095  0.64765093    -0.17300
C410        C  0.29781727  0.71751014  0.73575603    -0.16500
C411        C  0.32347735  0.69361134  0.70938091     0.07600
C412        C  0.35196188  0.66620559  0.67690770     0.09500
C413        C  0.37486400  0.64326903  0.64786231    -0.17300
C414        C  0.63981795  0.62225883  0.36170870    -0.16500
C415        C  0.66261813  0.64538585  0.33273137     0.07600
C416        C  0.68981167  0.67398833  0.30021091     0.09500
C417        C  0.71359751  0.69958905  0.27372114    -0.17300
C418        C  0.35185314  0.37842433  0.64704678    -0.16500
C419        C  0.32894911  0.35548905  0.67613121     0.07600
C420        C  0.30178164  0.32679858  0.70867360     0.09500
C421        C  0.27806085  0.30072594  0.73486146    -0.17300
C422        C  0.29897665  0.71816548  0.27330195    -0.16500
C423        C  0.32464230  0.69409994  0.29957607     0.07600
C424        C  0.35302003  0.66642730  0.33197780     0.09500
C425        C  0.37573366  0.64328342  0.36103078    -0.17300
C426        C  0.61884086  0.35729663  0.36173860    -0.16500
C427        C  0.64149298  0.33408403  0.33265831     0.07600
C428        C  0.66952049  0.30642209  0.29994699     0.09500
C429        C  0.69505070  0.28244529  0.27347211    -0.17300
C430        C  0.27933744  0.30186733  0.27282171    -0.16500
C431        C  0.30314818  0.32758068  0.29925696     0.07600
C432        C  0.33025646  0.35571796  0.33227102     0.09500
C433        C  0.35288292  0.37828497  0.36178623    -0.17300
loop_ 
_geom_bond_atom_site_label_1 
_geom_bond_atom_site_label_2 
_geom_bond_distance 
_geom_bond_site_symmetry_2 
_ccdc_geom_bond_type 
C1           N19   1.347       .  A
C1           C38   1.455       .  S
C1          C433   1.436       .  S
N2           N19   1.325       .  A
N2           N24   1.321       .  A
N2          Co39   2.085       .  S
C3           N28   1.341       .  A
C3           C41   1.454       .  S
C3           H48   1.082       .  S
H4           C45   1.082       .  S
C5           N29   1.341       .  A
C5            C9   1.455       .  S
C5           H34   1.081       .  S
Co6          N24   2.084       .  S
Co6          N14   2.085       .  S
Co6          N46   2.083       .  S
Co6          N22   2.085       .  S
Co6         Cl50   2.452       .  S
N7           C45   1.341       .  A
N7           N14   1.320       .  A
N7           Co8   2.081       .  S
Co8          N11   2.082       .  S
Co8          N28   2.081       .  S
Co8          N15   2.082       .  S
Co8         Cl50   2.450       .  S
C9           N47   1.346       .  A
C9          C414   1.434       .  S
N10          N17   1.321       .  A
N10          N40   1.325       .  A
N10         Co43   2.084       .  S
N11          N29   1.320       .  A
N11          N47   1.324       .  A
N12          C41   1.347       .  A
N12          N22   1.325       .  A
H13          C38   1.082       .  S
N14          N35   1.325       .  A
N15          N33   1.321       .  A
N15          N20   1.324       .  A
C16          N20   1.346       .  A
C16          C44   1.455       .  S
C16         C402   1.434       .  S
N17          C32   1.341       .  A
N17         Co39   2.085       .  S
C18          N46   1.341       .  A
C18          C21   1.455       .  S
C18          H52   1.082       .  S
C21          N42   1.348       .  A
C21         C418   1.436       .  S
N22          N28   1.321       .  A
N23          C49   1.341       .  A
N23          N25   1.321       .  A
N23         Co39   2.084       .  S
N24          C38   1.342       .  A
N25          N53   1.325       .  A
N25         Co43   2.084       .  S
H26          C49   1.081       .  S
H27          C44   1.082       .  S
N29         Co43   2.083       .  S
N30          N42   1.325       .  A
N30          N46   1.321       .  A
N30         Co39   2.087       .  S
C31          N35   1.347       .  A
C31          C45   1.454       .  S
C31         C425   1.434       .  S
C32          C51   1.455       .  S
C32          H36   1.081       .  S
N33          C44   1.341       .  A
N33         Co43   2.084       .  S
C37          N53   1.347       .  A
C37          C49   1.454       .  S
C37         C409   1.435       .  S
Co39        Cl50   2.449       .  S
N40          C51   1.347       .  A
C41         C413   1.434       .  S
Co43        Cl50   2.453       .  S
C51         C426   1.436       .  S
C54          C55   1.537       .  S
C54          C60   1.534       .  S
C54          C58   1.537       .  S
C54         C405   1.466       .  S
C55          H62   1.086       .  S
C55          C56   1.364       .  D
C56          C57   1.534       .  S
C56         C398   1.441       .  S
C57          C61   1.534       .  S
C57          C59   1.535       .  S
C57          H63   1.112       .  S
C58          H64   1.086       .  S
C58          C59   1.364       .  D
C59         C396   1.442       .  S
C60          H65   1.087       .  S
C60          C61   1.361       .  D
C61         C400   1.437       .  S
C66          C67   1.535       .  S
C66          C72   1.537       .  S
C66          C70   1.538       .  S
C66         C406   1.466       .  S
C67          H74   1.087       .  S
C67          C68   1.361       .  D
C68          C69   1.532       .  S
C68         C392   1.436       .  S
C69          C73   1.533       .  S
C69          C71   1.533       .  S
C69          H75   1.112       .  S
C70          H76   1.086       .  S
C70          C71   1.365       .  D
C71         C390   1.440       .  S
C72          H77   1.086       .  S
C72          C73   1.364       .  D
C73         C395   1.440       .  S
C78          C79   1.537       .  S
C78          C84   1.536       .  S
C78          C82   1.537       .  S
C78         C410   1.466       .  S
C79          H86   1.086       .  S
C79          C80   1.364       .  D
C80          C81   1.535       .  S
C80         C388   1.442       .  S
C81          C85   1.534       .  S
C81          C83   1.534       .  S
C81          H87   1.112       .  S
C82          H88   1.086       .  S
C82          C83   1.364       .  D
C83         C384   1.440       .  S
C84          H89   1.087       .  S
C84          C85   1.362       .  D
C85         C387   1.439       .  S
C90          C91   1.536       .  S
C90          C96   1.536       .  S
C90          C94   1.537       .  S
C90         C421   1.467       .  S
C91          H98   1.086       .  S
C91          C92   1.364       .  D
C92          C93   1.533       .  S
C92         C382   1.439       .  S
C93          C97   1.533       .  S
C93          C95   1.535       .  S
C93          H99   1.112       .  S
C94         H100   1.086       .  S
C94          C95   1.364       .  D
C95         C380   1.440       .  S
C96         H101   1.087       .  S
C96          C97   1.363       .  D
C97         C378   1.439       .  S
N102        C107   1.353   1_565  A
N102        C106   1.353       .  A
N102        H134   1.038       .  S
N103        C110   1.350       .  A
N103        C111   1.350   1_655  A
N104        C109   1.354       .  A
N104        C108   1.354   1_545  A
N104        H135   1.038   1_545  S
N105        C112   1.350       .  A
N105        C113   1.350   1_655  A
C106        C114   1.388       .  A
C106        C122   1.412       .  A
C107        C123   1.412       .  A
C107        C115   1.388       .  A
C108        C116   1.388       .  A
C108        C125   1.414       .  A
C109        C124   1.414       .  A
C109        C117   1.388       .  A
C110        C122   1.409       .  A
C110        C118   1.387       .  A
C111        C125   1.410       .  A
C111        C119   1.387       .  A
C112        C120   1.387       .  A
C112        C123   1.409       .  A
C113        C121   1.387       .  A
C113        C124   1.410       .  A
C114        H126   1.083       .  S
C114        C115   1.373   1_565  A
C115        H127   1.083       .  S
C116        H128   1.082       .  S
C116        C117   1.373   1_565  A
C117        H129   1.082       .  S
C118        H130   1.083       .  S
C118        C119   1.374   1_655  A
C119        H131   1.082       .  S
C120        H132   1.083       .  S
C120        C121   1.374   1_655  A
C121        H133   1.082       .  S
C122        C401   1.447       .  S
C123        C393   1.445       .  S
C124        C379   1.449       .  S
C125        C386   1.449       .  S
C136        C137   1.535       .  S
C136        C142   1.537       .  S
C136        C140   1.537       .  S
C136        C417   1.466       .  S
C137        H144   1.087       .  S
C137        C138   1.361       .  D
C138        C139   1.534       .  S
C138        C377   1.438       .  S
C139        C143   1.534       .  S
C139        C141   1.535       .  S
C139        H145   1.112       .  S
C140        H146   1.086       .  S
C140        C141   1.364       .  D
C141        C374   1.442       .  S
C142        H147   1.086       .  S
C142        C143   1.364       .  D
C143        C372   1.441       .  S
C148        C149   1.537       .  S
C148        C154   1.537       .  S
C148        C152   1.537       .  S
C148        C422   1.467       .  S
C149        H156   1.086       .  S
C149        C150   1.364       .  D
C150        C151   1.534       .  S
C150        C367   1.440       .  S
C151        C155   1.534       .  S
C151        C153   1.534       .  S
C151        H157   1.112       .  S
C152        H158   1.086       .  S
C152        C153   1.364       .  D
C153        C369   1.441       .  S
C154        H159   1.087       .  S
C154        C155   1.363       .  D
C155        C370   1.441       .  S
N160        C165   1.354       .  A
N160        C164   1.354   1_455  A
N160        H192   1.038       .  S
N161        C168   1.351       .  A
N161        C169   1.351   1_554  A
N162        C167   1.354       .  A
N162        C166   1.354   1_455  A
N162        H193   1.038       .  S
N163        C170   1.351       .  A
N163        C171   1.351   1_554  A
C164        C172   1.388       .  A
C164        C180   1.415       .  A
C165        C181   1.415       .  A
C165        C173   1.388       .  A
C166        C174   1.388       .  A
C166        C183   1.415       .  A
C167        C182   1.415       .  A
C167        C175   1.388       .  A
C168        C180   1.411       .  A
C168        C176   1.387       .  A
C169        C183   1.411       .  A
C169        C177   1.387       .  A
C170        C178   1.387       .  A
C170        C181   1.411       .  A
C171        C179   1.387       .  A
C171        C182   1.411       .  A
C172        H184   1.082       .  S
C172        C173   1.375   1_655  A
C173        H185   1.083       .  S
C174        H186   1.082       .  S
C174        C175   1.374   1_655  A
C175        H187   1.082       .  S
C176        H188   1.082       .  S
C176        C177   1.374   1_554  A
C177        H189   1.082       .  S
C178        H190   1.083       .  S
C178        C179   1.373   1_554  A
C179        H191   1.083       .  S
C180        C373   1.451       .  S
C181        C366   1.450       .  S
C182        C385   1.450       .  S
C183        C399   1.451       .  S
C194        C195   1.537       .  S
C194        C200   1.537       .  S
C194        C198   1.537       .  S
C194        C430   1.468       .  S
C195        H202   1.086       .  S
C195        C196   1.364       .  D
C196        C197   1.535       .  S
C196        C363   1.441       .  S
C197        C201   1.533       .  S
C197        C199   1.534       .  S
C197        H203   1.112       .  S
C198        H204   1.086       .  S
C198        C199   1.364       .  D
C199        C360   1.440       .  S
C200        H205   1.087       .  S
C200        C201   1.363       .  D
C201        C365   1.440       .  S
N206        C211   1.353       .  A
N206        C210   1.353   1_565  A
N206        H238   1.039       .  S
N207        C214   1.350       .  A
N207        C215   1.350   1_655  A
N208        C213   1.354   1_545  A
N208        C212   1.354       .  A
N208        H239   1.038       .  S
N209        C216   1.350       .  A
N209        C217   1.350   1_655  A
C210        C218   1.388       .  A
C210        C226   1.413       .  A
C211        C227   1.413       .  A
C211        C219   1.388       .  A
C212        C220   1.388       .  A
C212        C229   1.414       .  A
C213        C228   1.415       .  A
C213        C221   1.388       .  A
C214        C226   1.409       .  A
C214        C222   1.387       .  A
C215        C229   1.411       .  A
C215        C223   1.387       .  A
C216        C224   1.387       .  A
C216        C227   1.410       .  A
C217        C225   1.387       .  A
C217        C228   1.410       .  A
C218        H230   1.083       .  S
C218        C219   1.374   1_545  A
C219        H231   1.083       .  S
C220        H232   1.082       .  S
C220        C221   1.374   1_545  A
C221        H233   1.082       .  S
C222        H234   1.083       .  S
C222        C223   1.374   1_655  A
C223        H235   1.082       .  S
C224        H236   1.083       .  S
C224        C225   1.374   1_655  A
C225        H237   1.082       .  S
C226        C359   1.446       .  S
C227        C376   1.448       .  S
C228        C371   1.450       .  S
C229        C364   1.450       .  S
N240        C245   1.354   1_554  A
N240        C244   1.354       .  A
N240        H272   1.036       .  S
N241        C248   1.352   1_545  A
N241        C249   1.351       .  A
N242        C247   1.354   1_554  A
N242        C246   1.355       .  A
N242        H273   1.037       .  S
N243        C250   1.352   1_545  A
N243        C251   1.351       .  A
C244        C252   1.388       .  A
C244        C260   1.417       .  A
C245        C261   1.416       .  A
C245        C253   1.388       .  A
C246        C254   1.388       .  A
C246        C263   1.416       .  A
C247        C262   1.416       .  A
C247        C255   1.388       .  A
C248        C260   1.413       .  A
C248        C256   1.387       .  A
C249        C263   1.413       .  A
C249        C257   1.387       .  A
C250        C258   1.387       .  A
C250        C261   1.413       .  A
C251        C259   1.387       .  A
C251        C262   1.412       .  A
C252        H264   1.082       .  S
C252        C253   1.374   1_554  A
C253        H265   1.082       .  S
C254        H266   1.082       .  S
C254        C255   1.374   1_554  A
C255        H267   1.082       .  S
C256        H268   1.082       .  S
C256        C257   1.373   1_565  A
C257        H269   1.083       .  S
C258        H270   1.082       .  S
C258        C259   1.373   1_565  A
C259        H271   1.083       .  S
C260        C368   1.451       .  S
C261        C389   1.452       .  S
C262        C381   1.450       .  S
C263        C362   1.451       .  S
N274        C279   1.354   1_554  A
N274        C278   1.354       .  A
N274        H306   1.037       .  S
N275        C282   1.351       .  A
N275        C283   1.351   1_655  A
N276        C281   1.353   1_554  A
N276        C280   1.353       .  A
N276        H307   1.037       .  S
N277        C284   1.351       .  A
N277        C285   1.351   1_655  A
C278        C286   1.388       .  A
C278        C294   1.414       .  A
C279        C295   1.414       .  A
C279        C287   1.388       .  A
C280        C288   1.388       .  A
C280        C297   1.414       .  A
C281        C296   1.414       .  A
C281        C289   1.388       .  A
C282        C294   1.411       .  A
C282        C290   1.387       .  A
C283        C297   1.411       .  A
C283        C291   1.386       .  A
C284        C292   1.387       .  A
C284        C295   1.411       .  A
C285        C293   1.387       .  A
C285        C296   1.411       .  A
C286        H298   1.083       .  S
C286        C287   1.375   1_554  A
C287        H299   1.083       .  S
C288        H300   1.083       .  S
C288        C289   1.374   1_554  A
C289        H301   1.083       .  S
C290        H302   1.082       .  S
C290        C291   1.373   1_655  A
C291        H303   1.082       .  S
C292        H304   1.082       .  S
C292        C293   1.373   1_655  A
C293        H305   1.082       .  S
C294        C357   1.450       .  S
C295        C394   1.450       .  S
C296        C383   1.449       .  S
C297        C361   1.450       .  S
C308        C309   1.538       .  S
C308        C314   1.535       .  S
C308        C312   1.538       .  S
C308        C429   1.468       .  S
C309        H316   1.086       .  S
C309        C310   1.364       .  D
C310        C311   1.533       .  S
C310        C356   1.440       .  S
C311        C315   1.533       .  S
C311        C313   1.533       .  S
C311        H317   1.112       .  S
C312        H318   1.086       .  S
C312        C313   1.365       .  D
C313        C355   1.441       .  S
C314        H319   1.087       .  S
C314        C315   1.361       .  D
C315        C358   1.437       .  S
N320        C325   1.353   1_565  A
N320        C324   1.353       .  A
N320        H352   1.039       .  S
N321        C328   1.351       .  A
N321        C329   1.351   1_554  A
N322        C327   1.353   1_565  A
N322        C326   1.353       .  A
N322        H353   1.040       .  S
N323        C330   1.351       .  A
N323        C331   1.350   1_554  A
C324        C332   1.388       .  A
C324        C340   1.414       .  A
C325        C341   1.413       .  A
C325        C333   1.388       .  A
C326        C334   1.388       .  A
C326        C343   1.414       .  A
C327        C342   1.412       .  A
C327        C335   1.388       .  A
C328        C340   1.411       .  A
C328        C336   1.387       .  A
C329        C343   1.411       .  A
C329        C337   1.386       .  A
C330        C338   1.387       .  A
C330        C341   1.410       .  A
C331        C339   1.387       .  A
C331        C342   1.410       .  A
C332        H344   1.083       .  S
C332        C333   1.375   1_565  A
C333        H345   1.083       .  S
C334        H346   1.083       .  S
C334        C335   1.375   1_565  A
C335        H347   1.083       .  S
C336        H348   1.082       .  S
C336        C337   1.376   1_554  A
C337        H349   1.082       .  S
C338        H350   1.082       .  S
C338        C339   1.375   1_554  A
C339        H351   1.082       .  S
C340        C375   1.451       .  S
C341        C354   1.450       .  S
C342        C391   1.450       .  S
C343        C397   1.451       .  S
C354        C355   1.206       .  T
C356        C357   1.206       .  T
C358        C359   1.203       .  T
C360        C361   1.206       .  T
C362        C363   1.206       .  T
C364        C365   1.205       .  T
C366        C367   1.206       .  T
C368        C369   1.206       .  T
C370        C371   1.206       .  T
C372        C373   1.206       .  T
C374        C375   1.207       .  T
C376        C377   1.204       .  T
C378        C379   1.205       .  T
C380        C381   1.206       .  T
C382        C383   1.205       .  T
C384        C385   1.205       .  T
C386        C387   1.205       .  T
C388        C389   1.206       .  T
C390        C391   1.206       .  T
C392        C393   1.203       .  T
C394        C395   1.205       .  T
C396        C397   1.207       .  T
C398        C399   1.206       .  T
C400        C401   1.204       .  T
C402        C403   1.204       .  T
C403        C404   1.410       .  S
C404        C405   1.205       .  T
C406        C407   1.205       .  T
C407        C408   1.411       .  S
C408        C409   1.205       .  T
C410        C411   1.205       .  T
C411        C412   1.410       .  S
C412        C413   1.204       .  T
C414        C415   1.204       .  T
C415        C416   1.410       .  S
C416        C417   1.205       .  T
C418        C419   1.205       .  T
C419        C420   1.411       .  S
C420        C421   1.205       .  T
C422        C423   1.205       .  T
C423        C424   1.411       .  S
C424        C425   1.205       .  T
C426        C427   1.206       .  T
C427        C428   1.412       .  S
C428        C429   1.206       .  T
C430        C431   1.206       .  T
C431        C432   1.412       .  S
C432        C433   1.206       .  T
