geometry optimzed in LAMMPS
_audit_creation_date              2020-11-30 
_audit_creation_method            'lammps2cif' 
_symmetry_space_group_name_H-M    'P1' 
_symmetry_Int_Tables_number       1 
_symmetry_cell_setting            triclinic 
loop_ 
_symmetry_equiv_pos_as_xyz 
  x,y,z 
_cell_length_a                    32.70662957326552 
_cell_length_b                    32.810730468919985 
_cell_length_c                    34.40192989210306 
_cell_angle_alpha                 89.99896546626665 
_cell_angle_beta                  90.00024608734522 
_cell_angle_gamma                 90.0015220884768 
loop_ 
_atom_site_label 
_atom_site_type_symbol 
_atom_site_fract_x 
_atom_site_fract_y 
_atom_site_fract_z 
_atom_site_charge 
N1          N  0.20063554  0.32651728  0.20695009     0.00390
N2          N  0.19289984  0.35416046  0.18003467    -0.51730
N3          N  0.17215854  0.29814779  0.29610605     0.00710
N4          N  0.14444183  0.30589009  0.32303104    -0.53860
N5          N  0.20062799  0.32650295  0.29610742     0.01110
N6          N  0.19289083  0.35413625  0.32303060    -0.51700
N7          N  0.17216743  0.29816095  0.20693924     0.01440
N8          N  0.14445349  0.30591157  0.18001388    -0.54210
C9          C  0.15809828  0.34060197  0.16332741     1.02570
C10         C  0.15808668  0.34057385  0.33973001     1.02350
N11         N  0.20065389  0.17350492  0.29608628     0.00210
N12         N  0.19292233  0.14585789  0.32299964    -0.52310
N13         N  0.17218660  0.20186265  0.20692436     0.02090
N14         N  0.14447821  0.19410824  0.17999430    -0.53560
N15         N  0.20066660  0.17351957  0.20692873     0.00180
N16         N  0.19294496  0.14588242  0.18000448    -0.52570
N17         N  0.17217501  0.20184897  0.29609119     0.02440
N18         N  0.14445768  0.19408599  0.32301031    -0.53650
Mn19       Mn  0.17106923  0.25000492  0.25151514     1.18440
C20         C  0.15811150  0.15940105  0.33969927     1.04650
C21         C  0.15813914  0.15943008  0.16329816     1.05310
N22         N  0.29720649  0.32652659  0.29611580     0.00160
N23         N  0.30493185  0.35416605  0.32303699    -0.56150
N24         N  0.32569384  0.29819497  0.20695305     0.01350
N25         N  0.35340774  0.30595605  0.18003007    -0.56830
N26         N  0.29721424  0.32653841  0.20695823     0.00650
N27         N  0.30494172  0.35418283  0.18004145    -0.56420
N28         N  0.32568583  0.29818298  0.29611989     0.01750
N29         N  0.35339737  0.30593903  0.32304643    -0.57110
Mn30       Mn  0.24892076  0.32760657  0.25153297     1.10660
C31         C  0.33973919  0.34061889  0.33974096     1.05870
C32         C  0.33975087  0.34063907  0.16333930     1.05950
N33         N  0.29724500  0.17354068  0.20694131     0.00640
N34         N  0.30498583  0.14590514  0.18002114    -0.54730
N35         N  0.32570149  0.20188472  0.29610978     0.01320
N36         N  0.35341201  0.19413600  0.32303900    -0.51460
N37         N  0.29723266  0.17352899  0.29609865     0.00010
N38         N  0.30496430  0.14588840  0.32301748    -0.54300
N39         N  0.32571379  0.20189638  0.20694297     0.01030
N40         N  0.35343359  0.19415251  0.18002145    -0.51480
Mn41       Mn  0.24894988  0.17243827  0.25151367     1.20190
Mn42       Mn  0.32680146  0.25003993  0.25153151     1.10090
Cl43       Cl  0.24893533  0.25002242  0.25152334    -0.79450
C44         C  0.33979144  0.15946711  0.16332405     1.02880
C45         C  0.33976421  0.15944749  0.33972726     1.02680
C46         C  0.40833689  0.40946286  0.41486281     0.04020
C47         C  0.40835445  0.09060481  0.41485376     0.04020
C48         C  0.08949692  0.40941611  0.41485655     0.04020
C49         C  0.08951052  0.09055866  0.41482129     0.04020
C50         C  0.47819767  0.00001105  0.37155822     0.07070
C51         C  0.01960287  0.99999936  0.37154901     0.07070
C52         C  0.40834341  0.40948410  0.08821265     0.04020
C53         C  0.08949914  0.40944266  0.08820664     0.04020
C54         C  0.47820318  0.36476594  0.00154045     0.07070
C55         C  0.01961468  0.36475319  0.00153941     0.07070
C56         C  0.08954866  0.09058435  0.08817160     0.04020
C57         C  0.47825095  0.00004560  0.13149891     0.07070
C58         C  0.01965614  0.00003391  0.13148921     0.07070
C59         C  0.13429548  0.47930735  0.00152074     0.07070
C60         C  0.13428806  0.02067244  0.00149865     0.07070
C61         C  0.47825557  0.13529164  0.00151139     0.07070
C62         C  0.01966706  0.13527924  0.00150289     0.07070
C63         C  0.40838900  0.09062624  0.08820328     0.04020
C64         C  0.36358112  0.47937249  0.00153144     0.07070
C65         C  0.36357370  0.02073758  0.00154334     0.07070
C66         C  0.36993501  0.04373444  0.03696077    -0.06760
C67         C  0.38314266  0.06496039  0.06275247    -0.08320
C68         C  0.45538691  0.12878543  0.03697252    -0.06760
C69         C  0.43453575  0.11548703  0.06297883    -0.08320
C70         C  0.43428027  0.06379589  0.11167747    -0.06760
C71         C  0.45534695  0.03701962  0.12486861    -0.08320
C72         C  0.06340369  0.11545288  0.06295330    -0.06760
C73         C  0.04254821  0.12876025  0.03695461    -0.08320
C74         C  0.11477758  0.06490891  0.06271489    -0.06760
C75         C  0.12796068  0.04367409  0.03691881    -0.08320
C76         C  0.04257881  0.03699558  0.12484978    -0.06760
C77         C  0.06365354  0.06376282  0.11165200    -0.08320
C78         C  0.06334759  0.38457596  0.06299282    -0.06760
C79         C  0.04249189  0.37127007  0.03699366    -0.08320
C80         C  0.12794328  0.45632002  0.03694545    -0.06760
C81         C  0.11474081  0.43510156  0.06274539    -0.08320
C82         C  0.06361305  0.43627868  0.11167884    -0.06760
C83         C  0.04254966  0.46305817  0.12486758    -0.08320
C84         C  0.43448376  0.38461082  0.06299550    -0.06760
C85         C  0.45533191  0.37129607  0.03699563    -0.08320
C86         C  0.36991854  0.45638056  0.03695594    -0.06760
C87         C  0.38310934  0.43515338  0.06275463    -0.08320
C88         C  0.43424165  0.43631075  0.11168387    -0.06760
C89         C  0.45531824  0.46308197  0.12487087    -0.08320
C90         C  0.04252851  0.03696289  0.37816872    -0.06760
C91         C  0.06360816  0.06373336  0.39135272    -0.08320
C92         C  0.12794155  0.04366347  0.46607514    -0.06760
C93         C  0.11474574  0.06488883  0.44027753    -0.08320
C94         C  0.04253122  0.12874950  0.46604354    -0.06760
C95         C  0.06337455  0.11543409  0.44004052    -0.08320
C96         C  0.06334638  0.38455679  0.44007895    -0.06760
C97         C  0.04249057  0.37125919  0.46608235    -0.08320
C98         C  0.06360910  0.43624792  0.39138046    -0.06760
C99         C  0.04254521  0.46302515  0.37818702    -0.08320
C100        C  0.11474187  0.43508149  0.44030931    -0.06760
C101        C  0.12794389  0.45630944  0.46610226    -0.08320
C102        C  0.38311384  0.06494650  0.44031677    -0.06760
C103        C  0.36991652  0.04372595  0.46611767    -0.08320
C104        C  0.43423660  0.06376729  0.39137929    -0.06760
C105        C  0.45529707  0.03698692  0.37818797    -0.08320
C106        C  0.45537109  0.12877465  0.46606133    -0.06760
C107        C  0.43451032  0.11546952  0.44006545    -0.08320
C108        C  0.36991787  0.45637174  0.46611233    -0.06760
C109        C  0.38310644  0.43513869  0.44031755    -0.08320
C110        C  0.43447803  0.38459278  0.44008315    -0.06760
C111        C  0.45532912  0.37128480  0.46608467    -0.08320
C112        C  0.43423561  0.43628313  0.39138470    -0.06760
C113        C  0.45531329  0.46304954  0.37818968    -0.08320
C114        C  0.38280831  0.38378115  0.38989409    -0.06760
C115        C  0.36254472  0.36342372  0.36796672    -0.08320
C116        C  0.38283459  0.11629090  0.38988232    -0.06760
C117        C  0.36257266  0.13664784  0.36795384    -0.08320
C118        C  0.13527324  0.36336761  0.36795715    -0.06760
C119        C  0.11501247  0.38372499  0.38988591    -0.08320
C120        C  0.38281827  0.38380483  0.11318697    -0.06760
C121        C  0.36255628  0.36344687  0.13511546    -0.08320
C122        C  0.11503607  0.11623540  0.38984524    -0.06800
C123        C  0.13530164  0.13659187  0.36791861    -0.08320
C124        C  0.13528521  0.36340318  0.13510564    -0.06760
C125        C  0.11501954  0.38375888  0.11317941    -0.08320
C126        C  0.36260911  0.13667201  0.13510138    -0.06760
C127        C  0.38287326  0.11631561  0.11317489    -0.08320
C128        C  0.13533768  0.13662649  0.13506818    -0.06760
C129        C  0.11507726  0.11626794  0.11313892    -0.08320
N130        N  0.20063554  0.32651728  0.70695009     0.00390
N131        N  0.19289984  0.35416046  0.68003467    -0.51730
N132        N  0.17215854  0.29814779  0.79610605     0.00710
N133        N  0.14444183  0.30589009  0.82303104    -0.53860
N134        N  0.20062799  0.32650295  0.79610742     0.01110
N135        N  0.19289082  0.35413625  0.82303060    -0.51700
N136        N  0.17216742  0.29816095  0.70693924     0.01440
N137        N  0.14445349  0.30591157  0.68001388    -0.54210
C138        C  0.15809828  0.34060197  0.66332741     1.02570
C139        C  0.15808668  0.34057385  0.83973001     1.02350
N140        N  0.20065389  0.17350492  0.79608628     0.00210
N141        N  0.19292233  0.14585789  0.82299964    -0.52310
N142        N  0.17218660  0.20186265  0.70692436     0.02090
N143        N  0.14447821  0.19410824  0.67999430    -0.53560
N144        N  0.20066659  0.17351957  0.70692873     0.00180
N145        N  0.19294496  0.14588242  0.68000448    -0.52570
N146        N  0.17217501  0.20184897  0.79609119     0.02440
N147        N  0.14445768  0.19408599  0.82301031    -0.53650
Mn148      Mn  0.17106922  0.25000492  0.75151514     1.18440
C149        C  0.15811150  0.15940105  0.83969927     1.04650
C150        C  0.15813914  0.15943008  0.66329816     1.05310
N151        N  0.29720649  0.32652659  0.79611580     0.00160
N152        N  0.30493185  0.35416605  0.82303699    -0.56150
N153        N  0.32569383  0.29819497  0.70695305     0.01350
N154        N  0.35340774  0.30595605  0.68003007    -0.56830
N155        N  0.29721424  0.32653841  0.70695823     0.00650
N156        N  0.30494172  0.35418283  0.68004145    -0.56420
N157        N  0.32568583  0.29818298  0.79611989     0.01750
N158        N  0.35339737  0.30593903  0.82304643    -0.57110
Mn159      Mn  0.24892076  0.32760658  0.75153297     1.10660
C160        C  0.33973919  0.34061889  0.83974096     1.05870
C161        C  0.33975087  0.34063907  0.66333930     1.05950
N162        N  0.29724500  0.17354068  0.70694131     0.00640
N163        N  0.30498583  0.14590514  0.68002114    -0.54730
N164        N  0.32570149  0.20188472  0.79610978     0.01320
N165        N  0.35341201  0.19413600  0.82303900    -0.51460
N166        N  0.29723266  0.17352899  0.79609866     0.00010
N167        N  0.30496430  0.14588840  0.82301748    -0.54300
N168        N  0.32571379  0.20189638  0.70694297     0.01030
N169        N  0.35343358  0.19415251  0.68002145    -0.51480
Mn170      Mn  0.24894988  0.17243827  0.75151367     1.20190
Mn171      Mn  0.32680146  0.25003993  0.75153151     1.10090
Cl172      Cl  0.24893533  0.25002242  0.75152334    -0.79450
C173        C  0.33979144  0.15946711  0.66332405     1.02880
C174        C  0.33976421  0.15944749  0.83972726     1.02680
C175        C  0.40833689  0.40946286  0.91486281     0.04020
C176        C  0.40835445  0.09060481  0.91485376     0.04020
C177        C  0.08949692  0.40941611  0.91485655     0.04020
C178        C  0.08951052  0.09055866  0.91482130     0.04020
C179        C  0.47819768  0.00001105  0.87155822     0.07070
C180        C  0.01960287  0.99999936  0.87154901     0.07070
C181        C  0.40834341  0.40948410  0.58821264     0.04020
C182        C  0.08949914  0.40944265  0.58820664     0.04020
C183        C  0.47820318  0.36476594  0.50154045     0.07070
C184        C  0.01961468  0.36475319  0.50153941     0.07070
C185        C  0.08954866  0.09058435  0.58817160     0.04020
C186        C  0.47825095  0.00004560  0.63149891     0.07070
C187        C  0.01965614  0.00003391  0.63148921     0.07070
C188        C  0.13429548  0.47930735  0.50152074     0.07070
C189        C  0.13428807  0.02067244  0.50149865     0.07070
C190        C  0.47825556  0.13529165  0.50151139     0.07070
C191        C  0.01966706  0.13527924  0.50150289     0.07070
C192        C  0.40838900  0.09062624  0.58820328     0.04020
C193        C  0.36358112  0.47937249  0.50153143     0.07070
C194        C  0.36357369  0.02073758  0.50154334     0.07070
C195        C  0.36993500  0.04373444  0.53696077    -0.06760
C196        C  0.38314266  0.06496039  0.56275247    -0.08320
C197        C  0.45538690  0.12878543  0.53697252    -0.06760
C198        C  0.43453575  0.11548703  0.56297883    -0.08320
C199        C  0.43428027  0.06379589  0.61167747    -0.06760
C200        C  0.45534695  0.03701962  0.62486861    -0.08320
C201        C  0.06340370  0.11545288  0.56295330    -0.06760
C202        C  0.04254822  0.12876025  0.53695461    -0.08320
C203        C  0.11477758  0.06490891  0.56271489    -0.06760
C204        C  0.12796068  0.04367409  0.53691881    -0.08320
C205        C  0.04257881  0.03699558  0.62484978    -0.06760
C206        C  0.06365355  0.06376282  0.61165200    -0.08320
C207        C  0.06334759  0.38457596  0.56299282    -0.06760
C208        C  0.04249190  0.37127007  0.53699366    -0.08320
C209        C  0.12794328  0.45632002  0.53694544    -0.06760
C210        C  0.11474082  0.43510155  0.56274539    -0.08320
C211        C  0.06361305  0.43627867  0.61167884    -0.06760
C212        C  0.04254966  0.46305817  0.62486758    -0.08320
C213        C  0.43448375  0.38461082  0.56299550    -0.06760
C214        C  0.45533190  0.37129607  0.53699563    -0.08320
C215        C  0.36991854  0.45638056  0.53695594    -0.06760
C216        C  0.38310934  0.43515338  0.56275463    -0.08320
C217        C  0.43424164  0.43631075  0.61168387    -0.06760
C218        C  0.45531824  0.46308197  0.62487087    -0.08320
C219        C  0.04252851  0.03696289  0.87816872    -0.06760
C220        C  0.06360816  0.06373336  0.89135273    -0.08320
C221        C  0.12794154  0.04366346  0.96607514    -0.06760
C222        C  0.11474574  0.06488883  0.94027753    -0.08320
C223        C  0.04253122  0.12874949  0.96604355    -0.06760
C224        C  0.06337455  0.11543409  0.94004052    -0.08320
C225        C  0.06334638  0.38455679  0.94007895    -0.06760
C226        C  0.04249057  0.37125919  0.96608235    -0.08320
C227        C  0.06360909  0.43624792  0.89138046    -0.06760
C228        C  0.04254521  0.46302515  0.87818702    -0.08320
C229        C  0.11474187  0.43508149  0.94030931    -0.06760
C230        C  0.12794389  0.45630945  0.96610226    -0.08320
C231        C  0.38311384  0.06494650  0.94031677    -0.06760
C232        C  0.36991652  0.04372595  0.96611767    -0.08320
C233        C  0.43423661  0.06376729  0.89137929    -0.06760
C234        C  0.45529707  0.03698692  0.87818797    -0.08320
C235        C  0.45537110  0.12877465  0.96606133    -0.06760
C236        C  0.43451032  0.11546952  0.94006545    -0.08320
C237        C  0.36991787  0.45637174  0.96611233    -0.06760
C238        C  0.38310644  0.43513869  0.94031755    -0.08320
C239        C  0.43447803  0.38459278  0.94008315    -0.06760
C240        C  0.45532912  0.37128480  0.96608467    -0.08320
C241        C  0.43423561  0.43628313  0.89138470    -0.06760
C242        C  0.45531329  0.46304954  0.87818968    -0.08320
C243        C  0.38280831  0.38378115  0.88989409    -0.06760
C244        C  0.36254472  0.36342373  0.86796672    -0.08320
C245        C  0.38283459  0.11629090  0.88988232    -0.06760
C246        C  0.36257266  0.13664784  0.86795384    -0.08320
C247        C  0.13527324  0.36336762  0.86795715    -0.06760
C248        C  0.11501247  0.38372499  0.88988591    -0.08320
C249        C  0.38281826  0.38380483  0.61318696    -0.06760
C250        C  0.36255627  0.36344687  0.63511546    -0.08320
C251        C  0.11503607  0.11623540  0.88984524    -0.06800
C252        C  0.13530164  0.13659187  0.86791861    -0.08320
C253        C  0.13528521  0.36340318  0.63510564    -0.06760
C254        C  0.11501954  0.38375888  0.61317941    -0.08320
C255        C  0.36260910  0.13667201  0.63510138    -0.06760
C256        C  0.38287326  0.11631561  0.61317489    -0.08320
C257        C  0.13533768  0.13662649  0.63506818    -0.06760
C258        C  0.11507726  0.11626794  0.61313892    -0.08320
N259        N  0.20063019  0.82651546  0.20694778     0.00390
N260        N  0.19289498  0.85415740  0.18003098    -0.51730
N261        N  0.17215087  0.79814645  0.29610384     0.00710
N262        N  0.14442873  0.80589047  0.32302334    -0.53860
N263        N  0.20061776  0.82650393  0.29610542     0.01110
N264        N  0.19287334  0.85414090  0.32302349    -0.51700
N265        N  0.17216325  0.79815796  0.20693662     0.01440
N266        N  0.14445041  0.80590676  0.18000939    -0.54210
C267        C  0.15809477  0.84059737  0.16332221     1.02570
C268        C  0.15806740  0.84057802  0.33971959     1.02350
N269        N  0.20066412  0.67350590  0.29608829     0.00210
N270        N  0.19293982  0.64586254  0.32300675    -0.52310
N271        N  0.17219078  0.70185966  0.20692699     0.02090
N272        N  0.14448130  0.69410344  0.17999878    -0.53560
N273        N  0.20067196  0.67351777  0.20693105     0.00180
N274        N  0.19294983  0.64587937  0.18000817    -0.52570
N275        N  0.17218269  0.70184764  0.29609341     0.02440
N276        N  0.14447078  0.69408636  0.32301802    -0.53650
Mn277      Mn  0.17106923  0.75000217  0.25151514     1.18440
C278        C  0.15813079  0.65940522  0.33970969     1.04650
C279        C  0.15814265  0.65942549  0.16330336     1.05310
N280        N  0.29719626  0.82652579  0.29611770     0.00160
N281        N  0.30491435  0.85416161  0.32304397    -0.56150
N282        N  0.32568965  0.79819802  0.20695562     0.01350
N283        N  0.35340466  0.80596088  0.18003450    -0.56830
N284        N  0.29720888  0.82654028  0.20696045     0.00650
N285        N  0.30493686  0.85418591  0.18004501    -0.56420
N286        N  0.32567815  0.79818449  0.29612204     0.01750
N287        N  0.35338423  0.80593883  0.32305408    -0.57110
Mn288      Mn  0.24891338  0.82760664  0.25153292     1.10660
C289        C  0.33971987  0.84061490  0.33975129     1.05870
C290        C  0.33974737  0.84064367  0.16334440     1.05950
N291        N  0.29725037  0.67354256  0.20693910     0.00640
N292        N  0.30499069  0.64590822  0.18001759    -0.54730
N293        N  0.32570918  0.70188624  0.29610764     0.01320
N294        N  0.35342515  0.69413580  0.32303136    -0.51460
N295        N  0.29724289  0.67352820  0.29609676     0.00010
N296        N  0.30498181  0.64588396  0.32301050    -0.54300
N297        N  0.32571798  0.70189943  0.20694042     0.01030
N298        N  0.35343667  0.69415735  0.18001703    -0.51480
Mn299      Mn  0.24895726  0.67243834  0.25151373     1.20190
Mn300      Mn  0.32680146  0.75004281  0.25153151     1.10090
Cl301      Cl  0.24893533  0.75002249  0.25152335    -0.79450
C302        C  0.33979494  0.65947171  0.16331896     1.02880
C303        C  0.33978353  0.65944351  0.33971694     1.02680
C304        C  0.40830581  0.90946195  0.41487775     0.04020
C305        C  0.40838553  0.59060390  0.41483882     0.04020
C306        C  0.08946585  0.90941705  0.41484159     0.04020
C307        C  0.08954160  0.59055960  0.41483625     0.04020
C308        C  0.47823746  0.50001105  0.37155435     0.07070
C309        C  0.01964266  0.49999935  0.37155291     0.07070
C310        C  0.40834433  0.90948795  0.08822360     0.04020
C311        C  0.08950002  0.90943879  0.08819561     0.04020
C312        C  0.47818992  0.86476655  0.00154414     0.07070
C313        C  0.01960142  0.86475253  0.00153564     0.07070
C314        C  0.08954778  0.59058049  0.08818263     0.04020
C315        C  0.47824242  0.50004561  0.13149469     0.07070
C316        C  0.01964762  0.50003392  0.13149350     0.07070
C317        C  0.13427530  0.97930728  0.00150374     0.07070
C318        C  0.13430825  0.52067236  0.00151565     0.07070
C319        C  0.47826883  0.63529225  0.00150771     0.07070
C320        C  0.01968033  0.63527857  0.00150666     0.07070
C321        C  0.40838809  0.59063009  0.08819232     0.04020
C322        C  0.36356092  0.97937256  0.00154842     0.07070
C323        C  0.36359390  0.52073766  0.00152635     0.07070
C324        C  0.36994409  0.54373582  0.03694516    -0.06760
C325        C  0.38314400  0.56496424  0.06273891    -0.08320
C326        C  0.45539309  0.62878684  0.03696514    -0.06760
C327        C  0.43453817  0.61548981  0.06296958    -0.08320
C328        C  0.43427642  0.56379802  0.11166793    -0.06760
C329        C  0.45533999  0.53702010  0.12486077    -0.08320
C330        C  0.06340615  0.61545010  0.06296264    -0.06760
C331        C  0.04255441  0.62875882  0.03696208    -0.08320
C332        C  0.11477893  0.56490506  0.06272850    -0.06760
C333        C  0.12796976  0.54367272  0.03693445    -0.08320
C334        C  0.04257186  0.53699511  0.12485769    -0.06760
C335        C  0.06364973  0.56376069  0.11166161    -0.08320
C336        C  0.06334515  0.88457317  0.06298348    -0.06760
C337        C  0.04248571  0.87126864  0.03698620    -0.08320
C338        C  0.12793421  0.95631865  0.03692981    -0.06760
C339        C  0.11473947  0.93509770  0.06273179    -0.08320
C340        C  0.06361687  0.93627653  0.11166923    -0.06760
C341        C  0.04255661  0.96305769  0.12485967    -0.08320
C342        C  0.43448134  0.88461359  0.06300476    -0.06760
C343        C  0.45532573  0.87129747  0.03700301    -0.08320
C344        C  0.36990946  0.95638193  0.03697156    -0.06760
C345        C  0.38310801  0.93515722  0.06276819    -0.08320
C346        C  0.43424550  0.93631287  0.11169341    -0.06760
C347        C  0.45532520  0.96308244  0.12487871    -0.08320
C348        C  0.04256696  0.53696270  0.37817692    -0.06760
C349        C  0.06364386  0.56373323  0.39136453    -0.08320
C350        C  0.12796941  0.54366404  0.46609148    -0.06760
C351        C  0.11477650  0.56489077  0.44029362    -0.08320
C352        C  0.04255176  0.62874784  0.46605186    -0.06760
C353        C  0.06340080  0.61543250  0.44005304    -0.08320
C354        C  0.06332013  0.88455521  0.44006643    -0.06760
C355        C  0.04247004  0.87125755  0.46607404    -0.08320
C356        C  0.06357340  0.93624780  0.39136865    -0.06760
C357        C  0.04250677  0.96302497  0.37817882    -0.08320
C358        C  0.11471111  0.93508344  0.44029323    -0.06760
C359        C  0.12791603  0.95631002  0.46608592    -0.08320
C360        C  0.38314458  0.56494457  0.44030069    -0.06760
C361        C  0.36994438  0.54372538  0.46610134    -0.08320
C362        C  0.43427230  0.56376743  0.39136749    -0.06760
C363        C  0.45533550  0.53698711  0.37817980    -0.08320
C364        C  0.45539163  0.62877624  0.46605309    -0.06760
C365        C  0.43453658  0.61547108  0.44005298    -0.08320
C366        C  0.36989001  0.95637117  0.46612866    -0.06760
C367        C  0.38307569  0.93513677  0.44033364    -0.08320
C368        C  0.43445177  0.88459435  0.44009562    -0.06760
C369        C  0.45530859  0.87128641  0.46609291    -0.08320
C370        C  0.43419992  0.93628328  0.39139650    -0.06760
C371        C  0.45527486  0.96304974  0.37819786    -0.08320
C372        C  0.38277807  0.88377746  0.38991149    -0.06760
C373        C  0.36251862  0.86341842  0.36798239    -0.08320
C374        C  0.38286482  0.61628721  0.38986492    -0.06760
C375        C  0.36259877  0.63664254  0.36793817    -0.08320
C376        C  0.13524720  0.86337307  0.36794142    -0.06760
C377        C  0.11498228  0.88372877  0.38986848    -0.08320
C378        C  0.38281950  0.88381010  0.11319817    -0.06760
C379        C  0.36255470  0.86345292  0.13512423    -0.08320
C380        C  0.11506626  0.61623918  0.38986267    -0.06800
C381        C  0.13532768  0.63659733  0.36793434    -0.08320
C382        C  0.13528361  0.86339711  0.13509677    -0.06760
C383        C  0.11502073  0.88375358  0.11316813    -0.08320
C384        C  0.36261068  0.63667806  0.13509262    -0.06760
C385        C  0.38287203  0.61632089  0.11316369    -0.08320
C386        C  0.13533929  0.63662042  0.13507705    -0.06760
C387        C  0.11507608  0.61626265  0.11315020    -0.08320
N388        N  0.20063019  0.82651546  0.70694778     0.00390
N389        N  0.19289498  0.85415740  0.68003098    -0.51730
N390        N  0.17215087  0.79814645  0.79610384     0.00710
N391        N  0.14442873  0.80589047  0.82302334    -0.53860
N392        N  0.20061776  0.82650393  0.79610542     0.01110
N393        N  0.19287334  0.85414090  0.82302349    -0.51700
N394        N  0.17216325  0.79815796  0.70693662     0.01440
N395        N  0.14445041  0.80590676  0.68000939    -0.54210
C396        C  0.15809477  0.84059737  0.66332221     1.02570
C397        C  0.15806740  0.84057802  0.83971959     1.02350
N398        N  0.20066412  0.67350590  0.79608829     0.00210
N399        N  0.19293982  0.64586254  0.82300675    -0.52310
N400        N  0.17219079  0.70185966  0.70692699     0.02090
N401        N  0.14448130  0.69410344  0.67999878    -0.53560
N402        N  0.20067196  0.67351776  0.70693105     0.00180
N403        N  0.19294983  0.64587937  0.68000817    -0.52570
N404        N  0.17218269  0.70184764  0.79609341     0.02440
N405        N  0.14447078  0.69408636  0.82301802    -0.53650
Mn406      Mn  0.17106923  0.75000217  0.75151514     1.18440
C407        C  0.15813079  0.65940522  0.83970969     1.04650
C408        C  0.15814265  0.65942549  0.66330336     1.05310
N409        N  0.29719626  0.82652579  0.79611770     0.00160
N410        N  0.30491435  0.85416161  0.82304397    -0.56150
N411        N  0.32568965  0.79819802  0.70695562     0.01350
N412        N  0.35340466  0.80596088  0.68003450    -0.56830
N413        N  0.29720888  0.82654028  0.70696045     0.00650
N414        N  0.30493686  0.85418590  0.68004501    -0.56420
N415        N  0.32567815  0.79818449  0.79612204     0.01750
N416        N  0.35338423  0.80593883  0.82305408    -0.57110
Mn417      Mn  0.24891338  0.82760664  0.75153292     1.10660
C418        C  0.33971987  0.84061490  0.83975129     1.05870
C419        C  0.33974737  0.84064367  0.66334440     1.05950
N420        N  0.29725037  0.67354255  0.70693910     0.00640
N421        N  0.30499069  0.64590822  0.68001759    -0.54730
N422        N  0.32570918  0.70188624  0.79610765     0.01320
N423        N  0.35342515  0.69413580  0.82303136    -0.51460
N424        N  0.29724290  0.67352820  0.79609676     0.00010
N425        N  0.30498181  0.64588396  0.82301050    -0.54300
N426        N  0.32571798  0.70189943  0.70694042     0.01030
N427        N  0.35343667  0.69415735  0.68001703    -0.51480
Mn428      Mn  0.24895727  0.67243834  0.75151373     1.20190
Mn429      Mn  0.32680146  0.75004281  0.75153151     1.10090
Cl430      Cl  0.24893533  0.75002249  0.75152335    -0.79450
C431        C  0.33979494  0.65947171  0.66331896     1.02880
C432        C  0.33978353  0.65944351  0.83971694     1.02680
C433        C  0.40830581  0.90946195  0.91487775     0.04020
C434        C  0.40838553  0.59060390  0.91483883     0.04020
C435        C  0.08946585  0.90941705  0.91484159     0.04020
C436        C  0.08954160  0.59055960  0.91483625     0.04020
C437        C  0.47823746  0.50001105  0.87155435     0.07070
C438        C  0.01964265  0.49999935  0.87155291     0.07070
C439        C  0.40834433  0.90948795  0.58822360     0.04020
C440        C  0.08950003  0.90943879  0.58819561     0.04020
C441        C  0.47818992  0.86476655  0.50154414     0.07070
C442        C  0.01960142  0.86475253  0.50153564     0.07070
C443        C  0.08954778  0.59058049  0.58818263     0.04020
C444        C  0.47824242  0.50004561  0.63149469     0.07070
C445        C  0.01964762  0.50003392  0.63149349     0.07070
C446        C  0.13427530  0.97930728  0.50150374     0.07070
C447        C  0.13430825  0.52067236  0.50151565     0.07070
C448        C  0.47826883  0.63529225  0.50150771     0.07070
C449        C  0.01968033  0.63527857  0.50150666     0.07070
C450        C  0.40838809  0.59063009  0.58819232     0.04020
C451        C  0.36356092  0.97937256  0.50154842     0.07070
C452        C  0.36359389  0.52073765  0.50152635     0.07070
C453        C  0.36994409  0.54373582  0.53694516    -0.06760
C454        C  0.38314399  0.56496424  0.56273891    -0.08320
C455        C  0.45539309  0.62878684  0.53696514    -0.06760
C456        C  0.43453817  0.61548981  0.56296958    -0.08320
C457        C  0.43427642  0.56379802  0.61166793    -0.06760
C458        C  0.45533999  0.53702010  0.62486077    -0.08320
C459        C  0.06340615  0.61545010  0.56296264    -0.06760
C460        C  0.04255441  0.62875882  0.53696208    -0.08320
C461        C  0.11477893  0.56490506  0.56272850    -0.06760
C462        C  0.12796976  0.54367271  0.53693445    -0.08320
C463        C  0.04257187  0.53699511  0.62485769    -0.06760
C464        C  0.06364973  0.56376069  0.61166161    -0.08320
C465        C  0.06334515  0.88457317  0.56298348    -0.06760
C466        C  0.04248571  0.87126864  0.53698620    -0.08320
C467        C  0.12793421  0.95631865  0.53692981    -0.06760
C468        C  0.11473947  0.93509770  0.56273179    -0.08320
C469        C  0.06361688  0.93627653  0.61166923    -0.06760
C470        C  0.04255661  0.96305769  0.62485967    -0.08320
C471        C  0.43448134  0.88461359  0.56300476    -0.06760
C472        C  0.45532573  0.87129747  0.53700301    -0.08320
C473        C  0.36990946  0.95638193  0.53697156    -0.06760
C474        C  0.38310801  0.93515722  0.56276819    -0.08320
C475        C  0.43424550  0.93631287  0.61169341    -0.06760
C476        C  0.45532520  0.96308244  0.62487871    -0.08320
C477        C  0.04256695  0.53696270  0.87817692    -0.06760
C478        C  0.06364386  0.56373323  0.89136453    -0.08320
C479        C  0.12796941  0.54366404  0.96609148    -0.06760
C480        C  0.11477650  0.56489077  0.94029362    -0.08320
C481        C  0.04255175  0.62874784  0.96605186    -0.06760
C482        C  0.06340080  0.61543250  0.94005304    -0.08320
C483        C  0.06332013  0.88455521  0.94006643    -0.06760
C484        C  0.04247004  0.87125755  0.96607404    -0.08320
C485        C  0.06357340  0.93624780  0.89136865    -0.06760
C486        C  0.04250677  0.96302497  0.87817882    -0.08320
C487        C  0.11471111  0.93508344  0.94029323    -0.06760
C488        C  0.12791603  0.95631002  0.96608592    -0.08320
C489        C  0.38314458  0.56494457  0.94030069    -0.06760
C490        C  0.36994438  0.54372538  0.96610134    -0.08320
C491        C  0.43427230  0.56376743  0.89136749    -0.06760
C492        C  0.45533550  0.53698711  0.87817980    -0.08320
C493        C  0.45539164  0.62877625  0.96605309    -0.06760
C494        C  0.43453658  0.61547108  0.94005299    -0.08320
C495        C  0.36989002  0.95637117  0.96612866    -0.06760
C496        C  0.38307570  0.93513676  0.94033364    -0.08320
C497        C  0.43445177  0.88459435  0.94009562    -0.06760
C498        C  0.45530859  0.87128641  0.96609291    -0.08320
C499        C  0.43419992  0.93628328  0.89139650    -0.06760
C500        C  0.45527486  0.96304974  0.87819786    -0.08320
C501        C  0.38277808  0.88377746  0.88991149    -0.06760
C502        C  0.36251862  0.86341842  0.86798239    -0.08320
C503        C  0.38286482  0.61628721  0.88986492    -0.06760
C504        C  0.36259877  0.63664254  0.86793817    -0.08320
C505        C  0.13524720  0.86337307  0.86794142    -0.06760
C506        C  0.11498228  0.88372877  0.88986848    -0.08320
C507        C  0.38281950  0.88381010  0.61319817    -0.06760
C508        C  0.36255470  0.86345292  0.63512423    -0.08320
C509        C  0.11506626  0.61623918  0.88986267    -0.06800
C510        C  0.13532768  0.63659733  0.86793434    -0.08320
C511        C  0.13528361  0.86339711  0.63509677    -0.06760
C512        C  0.11502073  0.88375358  0.61316813    -0.08320
C513        C  0.36261068  0.63667806  0.63509262    -0.06760
C514        C  0.38287203  0.61632089  0.61316369    -0.08320
C515        C  0.13533929  0.63662042  0.63507705    -0.06760
C516        C  0.11507608  0.61626265  0.61315020    -0.08320
N517        N  0.70063554  0.32651728  0.20695009     0.00390
N518        N  0.69289984  0.35416046  0.18003467    -0.51730
N519        N  0.67215854  0.29814779  0.29610605     0.00710
N520        N  0.64444183  0.30589009  0.32303104    -0.53860
N521        N  0.70062799  0.32650295  0.29610742     0.01110
N522        N  0.69289082  0.35413625  0.32303060    -0.51700
N523        N  0.67216742  0.29816095  0.20693924     0.01440
N524        N  0.64445349  0.30591157  0.18001388    -0.54210
C525        C  0.65809828  0.34060197  0.16332741     1.02570
C526        C  0.65808668  0.34057385  0.33973001     1.02350
N527        N  0.70065389  0.17350492  0.29608628     0.00210
N528        N  0.69292233  0.14585789  0.32299964    -0.52310
N529        N  0.67218660  0.20186265  0.20692436     0.02090
N530        N  0.64447821  0.19410824  0.17999430    -0.53560
N531        N  0.70066659  0.17351957  0.20692873     0.00180
N532        N  0.69294496  0.14588242  0.18000448    -0.52570
N533        N  0.67217501  0.20184897  0.29609119     0.02440
N534        N  0.64445767  0.19408599  0.32301031    -0.53650
Mn535      Mn  0.67106922  0.25000492  0.25151514     1.18440
C536        C  0.65811150  0.15940105  0.33969927     1.04650
C537        C  0.65813913  0.15943008  0.16329816     1.05310
N538        N  0.79720649  0.32652659  0.29611580     0.00160
N539        N  0.80493185  0.35416605  0.32303699    -0.56150
N540        N  0.82569384  0.29819497  0.20695305     0.01350
N541        N  0.85340774  0.30595605  0.18003007    -0.56830
N542        N  0.79721424  0.32653841  0.20695823     0.00650
N543        N  0.80494172  0.35418283  0.18004145    -0.56420
N544        N  0.82568583  0.29818298  0.29611989     0.01750
N545        N  0.85339736  0.30593903  0.32304643    -0.57110
Mn546      Mn  0.74892075  0.32760657  0.25153297     1.10660
C547        C  0.83973919  0.34061889  0.33974096     1.05870
C548        C  0.83975087  0.34063907  0.16333930     1.05950
N549        N  0.79724500  0.17354068  0.20694131     0.00640
N550        N  0.80498583  0.14590514  0.18002114    -0.54730
N551        N  0.82570149  0.20188472  0.29610978     0.01320
N552        N  0.85341201  0.19413600  0.32303900    -0.51460
N553        N  0.79723266  0.17352899  0.29609866     0.00010
N554        N  0.80496430  0.14588840  0.32301748    -0.54300
N555        N  0.82571379  0.20189638  0.20694297     0.01030
N556        N  0.85343358  0.19415251  0.18002145    -0.51480
Mn557      Mn  0.74894988  0.17243827  0.25151367     1.20190
Mn558      Mn  0.82680146  0.25003993  0.25153151     1.10090
Cl559      Cl  0.74893533  0.25002242  0.25152334    -0.79450
C560        C  0.83979144  0.15946711  0.16332405     1.02880
C561        C  0.83976421  0.15944749  0.33972727     1.02680
C562        C  0.90833689  0.40946286  0.41486281     0.04020
C563        C  0.90835445  0.09060481  0.41485376     0.04020
C564        C  0.58949692  0.40941611  0.41485655     0.04020
C565        C  0.58951052  0.09055866  0.41482130     0.04020
C566        C  0.97819768  0.00001105  0.37155822     0.07070
C567        C  0.51960286  0.99999936  0.37154901     0.07070
C568        C  0.90834341  0.40948410  0.08821265     0.04020
C569        C  0.58949914  0.40944266  0.08820664     0.04020
C570        C  0.97820318  0.36476594  0.00154045     0.07070
C571        C  0.51961468  0.36475319  0.00153941     0.07070
C572        C  0.58954866  0.09058435  0.08817160     0.04020
C573        C  0.97825095  0.00004560  0.13149891     0.07070
C574        C  0.51965614  0.00003391  0.13148921     0.07070
C575        C  0.63429548  0.47930735  0.00152074     0.07070
C576        C  0.63428807  0.02067244  0.00149865     0.07070
C577        C  0.97825556  0.13529164  0.00151139     0.07070
C578        C  0.51966706  0.13527924  0.00150289     0.07070
C579        C  0.90838900  0.09062624  0.08820328     0.04020
C580        C  0.86358112  0.47937249  0.00153144     0.07070
C581        C  0.86357369  0.02073758  0.00154334     0.07070
C582        C  0.86993501  0.04373444  0.03696077    -0.06760
C583        C  0.88314266  0.06496039  0.06275247    -0.08320
C584        C  0.95538690  0.12878543  0.03697252    -0.06760
C585        C  0.93453575  0.11548703  0.06297883    -0.08320
C586        C  0.93428027  0.06379589  0.11167747    -0.06760
C587        C  0.95534695  0.03701962  0.12486861    -0.08320
C588        C  0.56340370  0.11545288  0.06295330    -0.06760
C589        C  0.54254821  0.12876025  0.03695461    -0.08320
C590        C  0.61477758  0.06490891  0.06271489    -0.06760
C591        C  0.62796068  0.04367409  0.03691881    -0.08320
C592        C  0.54257881  0.03699558  0.12484978    -0.06760
C593        C  0.56365355  0.06376282  0.11165200    -0.08320
C594        C  0.56334759  0.38457596  0.06299282    -0.06760
C595        C  0.54249190  0.37127007  0.03699366    -0.08320
C596        C  0.62794328  0.45632003  0.03694544    -0.06760
C597        C  0.61474082  0.43510156  0.06274539    -0.08320
C598        C  0.56361305  0.43627868  0.11167884    -0.06760
C599        C  0.54254966  0.46305817  0.12486758    -0.08320
C600        C  0.93448376  0.38461082  0.06299551    -0.06760
C601        C  0.95533190  0.37129607  0.03699563    -0.08320
C602        C  0.86991854  0.45638056  0.03695594    -0.06760
C603        C  0.88310934  0.43515338  0.06275463    -0.08320
C604        C  0.93424164  0.43631075  0.11168387    -0.06760
C605        C  0.95531824  0.46308197  0.12487087    -0.08320
C606        C  0.54252851  0.03696289  0.37816872    -0.06760
C607        C  0.56360816  0.06373336  0.39135272    -0.08320
C608        C  0.62794154  0.04366347  0.46607514    -0.06760
C609        C  0.61474573  0.06488883  0.44027753    -0.08320
C610        C  0.54253122  0.12874950  0.46604355    -0.06760
C611        C  0.56337455  0.11543409  0.44004052    -0.08320
C612        C  0.56334638  0.38455679  0.44007895    -0.06760
C613        C  0.54249057  0.37125919  0.46608235    -0.08320
C614        C  0.56360909  0.43624792  0.39138046    -0.06760
C615        C  0.54254521  0.46302515  0.37818702    -0.08320
C616        C  0.61474187  0.43508149  0.44030931    -0.06760
C617        C  0.62794388  0.45630944  0.46610226    -0.08320
C618        C  0.88311384  0.06494650  0.44031677    -0.06760
C619        C  0.86991652  0.04372595  0.46611767    -0.08320
C620        C  0.93423660  0.06376729  0.39137929    -0.06760
C621        C  0.95529707  0.03698692  0.37818797    -0.08320
C622        C  0.95537110  0.12877465  0.46606133    -0.06760
C623        C  0.93451032  0.11546952  0.44006545    -0.08320
C624        C  0.86991787  0.45637174  0.46611233    -0.06760
C625        C  0.88310644  0.43513869  0.44031755    -0.08320
C626        C  0.93447803  0.38459278  0.44008315    -0.06760
C627        C  0.95532912  0.37128480  0.46608467    -0.08320
C628        C  0.93423561  0.43628313  0.39138470    -0.06760
C629        C  0.95531329  0.46304954  0.37818968    -0.08320
C630        C  0.88280831  0.38378115  0.38989409    -0.06760
C631        C  0.86254472  0.36342372  0.36796672    -0.08320
C632        C  0.88283459  0.11629090  0.38988232    -0.06760
C633        C  0.86257266  0.13664784  0.36795384    -0.08320
C634        C  0.63527324  0.36336762  0.36795715    -0.06760
C635        C  0.61501247  0.38372499  0.38988591    -0.08320
C636        C  0.88281826  0.38380483  0.11318697    -0.06760
C637        C  0.86255627  0.36344687  0.13511546    -0.08320
C638        C  0.61503607  0.11623540  0.38984524    -0.06800
C639        C  0.63530164  0.13659187  0.36791861    -0.08320
C640        C  0.63528521  0.36340318  0.13510564    -0.06760
C641        C  0.61501954  0.38375888  0.11317941    -0.08320
C642        C  0.86260910  0.13667201  0.13510138    -0.06760
C643        C  0.88287326  0.11631561  0.11317489    -0.08320
C644        C  0.63533768  0.13662649  0.13506818    -0.06760
C645        C  0.61507726  0.11626794  0.11313892    -0.08320
N646        N  0.70063554  0.32651728  0.70695009     0.00390
N647        N  0.69289984  0.35416046  0.68003467    -0.51730
N648        N  0.67215854  0.29814779  0.79610605     0.00710
N649        N  0.64444183  0.30589009  0.82303104    -0.53860
N650        N  0.70062799  0.32650295  0.79610742     0.01110
N651        N  0.69289083  0.35413625  0.82303060    -0.51700
N652        N  0.67216743  0.29816095  0.70693924     0.01440
N653        N  0.64445349  0.30591157  0.68001388    -0.54210
C654        C  0.65809828  0.34060197  0.66332741     1.02570
C655        C  0.65808668  0.34057385  0.83973001     1.02350
N656        N  0.70065389  0.17350492  0.79608628     0.00210
N657        N  0.69292233  0.14585789  0.82299964    -0.52310
N658        N  0.67218660  0.20186265  0.70692436     0.02090
N659        N  0.64447821  0.19410824  0.67999430    -0.53560
N660        N  0.70066660  0.17351957  0.70692873     0.00180
N661        N  0.69294496  0.14588242  0.68000448    -0.52570
N662        N  0.67217501  0.20184897  0.79609119     0.02440
N663        N  0.64445768  0.19408599  0.82301031    -0.53650
Mn664      Mn  0.67106922  0.25000492  0.75151514     1.18440
C665        C  0.65811150  0.15940105  0.83969927     1.04650
C666        C  0.65813914  0.15943008  0.66329816     1.05310
N667        N  0.79720649  0.32652659  0.79611580     0.00160
N668        N  0.80493185  0.35416605  0.82303699    -0.56150
N669        N  0.82569384  0.29819497  0.70695305     0.01350
N670        N  0.85340774  0.30595605  0.68003007    -0.56830
N671        N  0.79721424  0.32653841  0.70695823     0.00650
N672        N  0.80494172  0.35418283  0.68004145    -0.56420
N673        N  0.82568583  0.29818298  0.79611989     0.01750
N674        N  0.85339737  0.30593903  0.82304643    -0.57110
Mn675      Mn  0.74892076  0.32760658  0.75153297     1.10660
C676        C  0.83973919  0.34061889  0.83974096     1.05870
C677        C  0.83975087  0.34063907  0.66333930     1.05950
N678        N  0.79724500  0.17354068  0.70694131     0.00640
N679        N  0.80498583  0.14590514  0.68002114    -0.54730
N680        N  0.82570149  0.20188472  0.79610978     0.01320
N681        N  0.85341201  0.19413600  0.82303900    -0.51460
N682        N  0.79723266  0.17352899  0.79609865     0.00010
N683        N  0.80496431  0.14588840  0.82301748    -0.54300
N684        N  0.82571379  0.20189638  0.70694297     0.01030
N685        N  0.85343359  0.19415251  0.68002145    -0.51480
Mn686      Mn  0.74894988  0.17243827  0.75151367     1.20190
Mn687      Mn  0.82680146  0.25003993  0.75153151     1.10090
Cl688      Cl  0.74893533  0.25002242  0.75152334    -0.79450
C689        C  0.83979144  0.15946711  0.66332405     1.02880
C690        C  0.83976421  0.15944749  0.83972726     1.02680
C691        C  0.90833689  0.40946286  0.91486281     0.04020
C692        C  0.90835445  0.09060481  0.91485376     0.04020
C693        C  0.58949692  0.40941611  0.91485655     0.04020
C694        C  0.58951052  0.09055866  0.91482130     0.04020
C695        C  0.97819768  0.00001105  0.87155822     0.07070
C696        C  0.51960287  0.99999936  0.87154901     0.07070
C697        C  0.90834341  0.40948410  0.58821264     0.04020
C698        C  0.58949914  0.40944265  0.58820664     0.04020
C699        C  0.97820318  0.36476594  0.50154045     0.07070
C700        C  0.51961468  0.36475319  0.50153941     0.07070
C701        C  0.58954866  0.09058435  0.58817160     0.04020
C702        C  0.97825095  0.00004560  0.63149891     0.07070
C703        C  0.51965614  0.00003391  0.63148921     0.07070
C704        C  0.63429548  0.47930735  0.50152074     0.07070
C705        C  0.63428806  0.02067244  0.50149865     0.07070
C706        C  0.97825556  0.13529165  0.50151139     0.07070
C707        C  0.51966706  0.13527924  0.50150289     0.07070
C708        C  0.90838900  0.09062624  0.58820328     0.04020
C709        C  0.86358112  0.47937249  0.50153143     0.07070
C710        C  0.86357370  0.02073758  0.50154334     0.07070
C711        C  0.86993501  0.04373444  0.53696077    -0.06760
C712        C  0.88314266  0.06496039  0.56275247    -0.08320
C713        C  0.95538691  0.12878543  0.53697252    -0.06760
C714        C  0.93453575  0.11548703  0.56297883    -0.08320
C715        C  0.93428027  0.06379589  0.61167747    -0.06760
C716        C  0.95534695  0.03701962  0.62486861    -0.08320
C717        C  0.56340369  0.11545288  0.56295330    -0.06760
C718        C  0.54254821  0.12876025  0.53695461    -0.08320
C719        C  0.61477758  0.06490891  0.56271489    -0.06760
C720        C  0.62796068  0.04367409  0.53691881    -0.08320
C721        C  0.54257881  0.03699558  0.62484978    -0.06760
C722        C  0.56365354  0.06376282  0.61165200    -0.08320
C723        C  0.56334759  0.38457596  0.56299282    -0.06760
C724        C  0.54249189  0.37127007  0.53699366    -0.08320
C725        C  0.62794328  0.45632002  0.53694544    -0.06760
C726        C  0.61474081  0.43510156  0.56274539    -0.08320
C727        C  0.56361305  0.43627867  0.61167884    -0.06760
C728        C  0.54254966  0.46305817  0.62486758    -0.08320
C729        C  0.93448376  0.38461082  0.56299550    -0.06760
C730        C  0.95533191  0.37129607  0.53699563    -0.08320
C731        C  0.86991854  0.45638056  0.53695594    -0.06760
C732        C  0.88310934  0.43515338  0.56275463    -0.08320
C733        C  0.93424165  0.43631075  0.61168387    -0.06760
C734        C  0.95531824  0.46308197  0.62487087    -0.08320
C735        C  0.54252851  0.03696289  0.87816872    -0.06760
C736        C  0.56360816  0.06373336  0.89135272    -0.08320
C737        C  0.62794155  0.04366346  0.96607514    -0.06760
C738        C  0.61474574  0.06488883  0.94027753    -0.08320
C739        C  0.54253122  0.12874949  0.96604354    -0.06760
C740        C  0.56337455  0.11543409  0.94004052    -0.08320
C741        C  0.56334638  0.38455679  0.94007895    -0.06760
C742        C  0.54249057  0.37125919  0.96608235    -0.08320
C743        C  0.56360910  0.43624792  0.89138046    -0.06760
C744        C  0.54254521  0.46302515  0.87818702    -0.08320
C745        C  0.61474187  0.43508149  0.94030931    -0.06760
C746        C  0.62794389  0.45630945  0.96610226    -0.08320
C747        C  0.88311384  0.06494650  0.94031677    -0.06760
C748        C  0.86991652  0.04372595  0.96611767    -0.08320
C749        C  0.93423660  0.06376729  0.89137929    -0.06760
C750        C  0.95529707  0.03698692  0.87818797    -0.08320
C751        C  0.95537110  0.12877465  0.96606133    -0.06760
C752        C  0.93451032  0.11546952  0.94006545    -0.08320
C753        C  0.86991787  0.45637174  0.96611233    -0.06760
C754        C  0.88310644  0.43513869  0.94031755    -0.08320
C755        C  0.93447803  0.38459278  0.94008315    -0.06760
C756        C  0.95532912  0.37128480  0.96608467    -0.08320
C757        C  0.93423561  0.43628313  0.89138470    -0.06760
C758        C  0.95531329  0.46304954  0.87818968    -0.08320
C759        C  0.88280831  0.38378115  0.88989409    -0.06760
C760        C  0.86254472  0.36342372  0.86796672    -0.08320
C761        C  0.88283459  0.11629090  0.88988232    -0.06760
C762        C  0.86257266  0.13664784  0.86795384    -0.08320
C763        C  0.63527324  0.36336762  0.86795715    -0.06760
C764        C  0.61501247  0.38372499  0.88988591    -0.08320
C765        C  0.88281826  0.38380483  0.61318696    -0.06760
C766        C  0.86255628  0.36344687  0.63511546    -0.08320
C767        C  0.61503607  0.11623540  0.88984524    -0.06800
C768        C  0.63530164  0.13659187  0.86791861    -0.08320
C769        C  0.63528521  0.36340318  0.63510564    -0.06760
C770        C  0.61501953  0.38375888  0.61317941    -0.08320
C771        C  0.86260911  0.13667201  0.63510138    -0.06760
C772        C  0.88287327  0.11631561  0.61317489    -0.08320
C773        C  0.63533768  0.13662649  0.63506818    -0.06760
C774        C  0.61507726  0.11626794  0.61313892    -0.08320
N775        N  0.70063019  0.82651546  0.20694778     0.00390
N776        N  0.69289498  0.85415740  0.18003098    -0.51730
N777        N  0.67215087  0.79814645  0.29610384     0.00710
N778        N  0.64442873  0.80589047  0.32302334    -0.53860
N779        N  0.70061776  0.82650393  0.29610542     0.01110
N780        N  0.69287334  0.85414090  0.32302349    -0.51700
N781        N  0.67216325  0.79815796  0.20693662     0.01440
N782        N  0.64445041  0.80590676  0.18000939    -0.54210
C783        C  0.65809477  0.84059737  0.16332221     1.02570
C784        C  0.65806740  0.84057802  0.33971959     1.02350
N785        N  0.70066412  0.67350591  0.29608829     0.00210
N786        N  0.69293982  0.64586254  0.32300675    -0.52310
N787        N  0.67219079  0.70185966  0.20692699     0.02090
N788        N  0.64448130  0.69410344  0.17999878    -0.53560
N789        N  0.70067196  0.67351777  0.20693105     0.00180
N790        N  0.69294983  0.64587937  0.18000817    -0.52570
N791        N  0.67218269  0.70184764  0.29609341     0.02440
N792        N  0.64447078  0.69408636  0.32301802    -0.53650
Mn793      Mn  0.67106923  0.75000217  0.25151514     1.18440
C794        C  0.65813079  0.65940522  0.33970969     1.04650
C795        C  0.65814265  0.65942549  0.16330336     1.05310
N796        N  0.79719626  0.82652579  0.29611770     0.00160
N797        N  0.80491435  0.85416161  0.32304397    -0.56150
N798        N  0.82568965  0.79819802  0.20695562     0.01350
N799        N  0.85340466  0.80596088  0.18003450    -0.56830
N800        N  0.79720888  0.82654028  0.20696045     0.00650
N801        N  0.80493686  0.85418591  0.18004501    -0.56420
N802        N  0.82567815  0.79818449  0.29612204     0.01750
N803        N  0.85338423  0.80593883  0.32305408    -0.57110
Mn804      Mn  0.74891338  0.82760664  0.25153292     1.10660
C805        C  0.83971987  0.84061490  0.33975129     1.05870
C806        C  0.83974737  0.84064367  0.16334440     1.05950
N807        N  0.79725037  0.67354256  0.20693910     0.00640
N808        N  0.80499070  0.64590822  0.18001759    -0.54730
N809        N  0.82570918  0.70188624  0.29610765     0.01320
N810        N  0.85342515  0.69413580  0.32303136    -0.51460
N811        N  0.79724290  0.67352820  0.29609677     0.00010
N812        N  0.80498181  0.64588396  0.32301050    -0.54300
N813        N  0.82571798  0.70189943  0.20694042     0.01030
N814        N  0.85343667  0.69415735  0.18001703    -0.51480
Mn815      Mn  0.74895727  0.67243834  0.25151373     1.20190
Mn816      Mn  0.82680146  0.75004281  0.25153151     1.10090
Cl817      Cl  0.74893533  0.75002249  0.25152335    -0.79450
C818        C  0.83979494  0.65947171  0.16331896     1.02880
C819        C  0.83978353  0.65944351  0.33971694     1.02680
C820        C  0.90830581  0.90946195  0.41487775     0.04020
C821        C  0.90838553  0.59060390  0.41483882     0.04020
C822        C  0.58946585  0.90941705  0.41484159     0.04020
C823        C  0.58954160  0.59055960  0.41483625     0.04020
C824        C  0.97823746  0.50001104  0.37155435     0.07070
C825        C  0.51964265  0.49999935  0.37155291     0.07070
C826        C  0.90834433  0.90948795  0.08822360     0.04020
C827        C  0.58950003  0.90943879  0.08819561     0.04020
C828        C  0.97818992  0.86476655  0.00154414     0.07070
C829        C  0.51960142  0.86475253  0.00153564     0.07070
C830        C  0.58954778  0.59058049  0.08818263     0.04020
C831        C  0.97824242  0.50004561  0.13149469     0.07070
C832        C  0.51964762  0.50003392  0.13149349     0.07070
C833        C  0.63427530  0.97930728  0.00150374     0.07070
C834        C  0.63430825  0.52067236  0.00151565     0.07070
C835        C  0.97826883  0.63529225  0.00150771     0.07070
C836        C  0.51968033  0.63527857  0.00150666     0.07070
C837        C  0.90838809  0.59063009  0.08819232     0.04020
C838        C  0.86356092  0.97937256  0.00154842     0.07070
C839        C  0.86359390  0.52073766  0.00152635     0.07070
C840        C  0.86994409  0.54373582  0.03694516    -0.06760
C841        C  0.88314399  0.56496424  0.06273891    -0.08320
C842        C  0.95539309  0.62878684  0.03696514    -0.06760
C843        C  0.93453817  0.61548981  0.06296958    -0.08320
C844        C  0.93427642  0.56379802  0.11166793    -0.06760
C845        C  0.95533999  0.53702010  0.12486077    -0.08320
C846        C  0.56340615  0.61545010  0.06296264    -0.06760
C847        C  0.54255441  0.62875882  0.03696208    -0.08320
C848        C  0.61477893  0.56490506  0.06272850    -0.06760
C849        C  0.62796976  0.54367272  0.03693445    -0.08320
C850        C  0.54257187  0.53699511  0.12485769    -0.06760
C851        C  0.56364973  0.56376069  0.11166161    -0.08320
C852        C  0.56334515  0.88457317  0.06298348    -0.06760
C853        C  0.54248571  0.87126864  0.03698620    -0.08320
C854        C  0.62793421  0.95631865  0.03692981    -0.06760
C855        C  0.61473947  0.93509770  0.06273179    -0.08320
C856        C  0.56361687  0.93627653  0.11166923    -0.06760
C857        C  0.54255661  0.96305769  0.12485967    -0.08320
C858        C  0.93448134  0.88461359  0.06300476    -0.06760
C859        C  0.95532573  0.87129747  0.03700301    -0.08320
C860        C  0.86990946  0.95638193  0.03697156    -0.06760
C861        C  0.88310801  0.93515722  0.06276819    -0.08320
C862        C  0.93424550  0.93631287  0.11169341    -0.06760
C863        C  0.95532520  0.96308244  0.12487871    -0.08320
C864        C  0.54256695  0.53696270  0.37817692    -0.06760
C865        C  0.56364386  0.56373323  0.39136453    -0.08320
C866        C  0.62796941  0.54366404  0.46609148    -0.06760
C867        C  0.61477650  0.56489077  0.44029362    -0.08320
C868        C  0.54255175  0.62874784  0.46605186    -0.06760
C869        C  0.56340080  0.61543250  0.44005304    -0.08320
C870        C  0.56332013  0.88455521  0.44006643    -0.06760
C871        C  0.54247004  0.87125755  0.46607404    -0.08320
C872        C  0.56357340  0.93624780  0.39136865    -0.06760
C873        C  0.54250677  0.96302497  0.37817882    -0.08320
C874        C  0.61471111  0.93508344  0.44029323    -0.06760
C875        C  0.62791603  0.95631002  0.46608592    -0.08320
C876        C  0.88314458  0.56494457  0.44030069    -0.06760
C877        C  0.86994438  0.54372538  0.46610134    -0.08320
C878        C  0.93427230  0.56376743  0.39136749    -0.06760
C879        C  0.95533550  0.53698711  0.37817980    -0.08320
C880        C  0.95539164  0.62877624  0.46605309    -0.06760
C881        C  0.93453658  0.61547108  0.44005298    -0.08320
C882        C  0.86989002  0.95637117  0.46612866    -0.06760
C883        C  0.88307570  0.93513677  0.44033364    -0.08320
C884        C  0.93445177  0.88459435  0.44009562    -0.06760
C885        C  0.95530859  0.87128641  0.46609291    -0.08320
C886        C  0.93419992  0.93628328  0.39139650    -0.06760
C887        C  0.95527486  0.96304974  0.37819786    -0.08320
C888        C  0.88277808  0.88377746  0.38991149    -0.06760
C889        C  0.86251862  0.86341843  0.36798239    -0.08320
C890        C  0.88286482  0.61628721  0.38986492    -0.06760
C891        C  0.86259877  0.63664254  0.36793817    -0.08320
C892        C  0.63524720  0.86337308  0.36794142    -0.06760
C893        C  0.61498228  0.88372877  0.38986848    -0.08320
C894        C  0.88281950  0.88381010  0.11319817    -0.06760
C895        C  0.86255470  0.86345292  0.13512424    -0.08320
C896        C  0.61506626  0.61623918  0.38986267    -0.06800
C897        C  0.63532768  0.63659733  0.36793434    -0.08320
C898        C  0.63528361  0.86339711  0.13509677    -0.06760
C899        C  0.61502073  0.88375358  0.11316813    -0.08320
C900        C  0.86261068  0.63667806  0.13509262    -0.06760
C901        C  0.88287203  0.61632089  0.11316369    -0.08320
C902        C  0.63533930  0.63662042  0.13507705    -0.06760
C903        C  0.61507608  0.61626265  0.11315020    -0.08320
N904        N  0.70063019  0.82651546  0.70694778     0.00390
N905        N  0.69289498  0.85415740  0.68003098    -0.51730
N906        N  0.67215087  0.79814645  0.79610384     0.00710
N907        N  0.64442873  0.80589047  0.82302334    -0.53860
N908        N  0.70061776  0.82650393  0.79610542     0.01110
N909        N  0.69287334  0.85414090  0.82302349    -0.51700
N910        N  0.67216325  0.79815796  0.70693662     0.01440
N911        N  0.64445041  0.80590676  0.68000939    -0.54210
C912        C  0.65809477  0.84059737  0.66332221     1.02570
C913        C  0.65806740  0.84057802  0.83971959     1.02350
N914        N  0.70066412  0.67350591  0.79608829     0.00210
N915        N  0.69293982  0.64586254  0.82300675    -0.52310
N916        N  0.67219079  0.70185966  0.70692699     0.02090
N917        N  0.64448130  0.69410344  0.67999878    -0.53560
N918        N  0.70067196  0.67351777  0.70693105     0.00180
N919        N  0.69294983  0.64587937  0.68000817    -0.52570
N920        N  0.67218269  0.70184764  0.79609341     0.02440
N921        N  0.64447078  0.69408636  0.82301801    -0.53650
Mn922      Mn  0.67106923  0.75000217  0.75151514     1.18440
C923        C  0.65813079  0.65940522  0.83970969     1.04650
C924        C  0.65814265  0.65942549  0.66330336     1.05310
N925        N  0.79719626  0.82652579  0.79611770     0.00160
N926        N  0.80491435  0.85416161  0.82304397    -0.56150
N927        N  0.82568965  0.79819802  0.70695562     0.01350
N928        N  0.85340466  0.80596088  0.68003450    -0.56830
N929        N  0.79720888  0.82654028  0.70696045     0.00650
N930        N  0.80493686  0.85418591  0.68004501    -0.56420
N931        N  0.82567815  0.79818449  0.79612204     0.01750
N932        N  0.85338423  0.80593883  0.82305408    -0.57110
Mn933      Mn  0.74891338  0.82760664  0.75153292     1.10660
C934        C  0.83971987  0.84061490  0.83975129     1.05870
C935        C  0.83974737  0.84064367  0.66334440     1.05950
N936        N  0.79725037  0.67354256  0.70693910     0.00640
N937        N  0.80499070  0.64590822  0.68001759    -0.54730
N938        N  0.82570918  0.70188624  0.79610764     0.01320
N939        N  0.85342515  0.69413580  0.82303136    -0.51460
N940        N  0.79724290  0.67352820  0.79609676     0.00010
N941        N  0.80498181  0.64588396  0.82301050    -0.54300
N942        N  0.82571798  0.70189943  0.70694042     0.01030
N943        N  0.85343667  0.69415735  0.68001703    -0.51480
Mn944      Mn  0.74895726  0.67243834  0.75151373     1.20190
Mn945      Mn  0.82680146  0.75004281  0.75153151     1.10090
Cl946      Cl  0.74893533  0.75002249  0.75152335    -0.79450
C947        C  0.83979494  0.65947171  0.66331896     1.02880
C948        C  0.83978353  0.65944351  0.83971694     1.02680
C949        C  0.90830581  0.90946195  0.91487775     0.04020
C950        C  0.90838553  0.59060390  0.91483883     0.04020
C951        C  0.58946585  0.90941705  0.91484159     0.04020
C952        C  0.58954160  0.59055960  0.91483625     0.04020
C953        C  0.97823746  0.50001105  0.87155435     0.07070
C954        C  0.51964266  0.49999935  0.87155291     0.07070
C955        C  0.90834433  0.90948795  0.58822360     0.04020
C956        C  0.58950002  0.90943879  0.58819561     0.04020
C957        C  0.97818992  0.86476655  0.50154414     0.07070
C958        C  0.51960142  0.86475253  0.50153563     0.07070
C959        C  0.58954778  0.59058049  0.58818263     0.04020
C960        C  0.97824242  0.50004561  0.63149469     0.07070
C961        C  0.51964762  0.50003392  0.63149349     0.07070
C962        C  0.63427530  0.97930728  0.50150374     0.07070
C963        C  0.63430825  0.52067236  0.50151565     0.07070
C964        C  0.97826883  0.63529225  0.50150771     0.07070
C965        C  0.51968033  0.63527857  0.50150666     0.07070
C966        C  0.90838809  0.59063009  0.58819232     0.04020
C967        C  0.86356092  0.97937256  0.50154842     0.07070
C968        C  0.86359390  0.52073765  0.50152635     0.07070
C969        C  0.86994409  0.54373582  0.53694516    -0.06760
C970        C  0.88314400  0.56496424  0.56273891    -0.08320
C971        C  0.95539309  0.62878684  0.53696514    -0.06760
C972        C  0.93453817  0.61548981  0.56296958    -0.08320
C973        C  0.93427642  0.56379802  0.61166793    -0.06760
C974        C  0.95533999  0.53702010  0.62486077    -0.08320
C975        C  0.56340614  0.61545010  0.56296264    -0.06760
C976        C  0.54255441  0.62875882  0.53696208    -0.08320
C977        C  0.61477893  0.56490506  0.56272850    -0.06760
C978        C  0.62796976  0.54367272  0.53693445    -0.08320
C979        C  0.54257186  0.53699511  0.62485769    -0.06760
C980        C  0.56364973  0.56376069  0.61166161    -0.08320
C981        C  0.56334515  0.88457317  0.56298348    -0.06760
C982        C  0.54248571  0.87126864  0.53698620    -0.08320
C983        C  0.62793421  0.95631865  0.53692981    -0.06760
C984        C  0.61473947  0.93509770  0.56273179    -0.08320
C985        C  0.56361687  0.93627653  0.61166923    -0.06760
C986        C  0.54255661  0.96305769  0.62485967    -0.08320
C987        C  0.93448134  0.88461359  0.56300476    -0.06760
C988        C  0.95532573  0.87129747  0.53700301    -0.08320
C989        C  0.86990946  0.95638193  0.53697156    -0.06760
C990        C  0.88310801  0.93515722  0.56276819    -0.08320
C991        C  0.93424550  0.93631287  0.61169341    -0.06760
C992        C  0.95532520  0.96308244  0.62487871    -0.08320
C993        C  0.54256696  0.53696270  0.87817692    -0.06760
C994        C  0.56364386  0.56373323  0.89136453    -0.08320
C995        C  0.62796941  0.54366404  0.96609148    -0.06760
C996        C  0.61477650  0.56489077  0.94029362    -0.08320
C997        C  0.54255176  0.62874784  0.96605186    -0.06760
C998        C  0.56340080  0.61543250  0.94005304    -0.08320
C999        C  0.56332013  0.88455521  0.94006643    -0.06760
C1000       C  0.54247004  0.87125755  0.96607404    -0.08320
C1001       C  0.56357340  0.93624779  0.89136865    -0.06760
C1002       C  0.54250677  0.96302497  0.87817882    -0.08320
C1003       C  0.61471111  0.93508344  0.94029323    -0.06760
C1004       C  0.62791603  0.95631002  0.96608592    -0.08320
C1005       C  0.88314458  0.56494457  0.94030069    -0.06760
C1006       C  0.86994438  0.54372538  0.96610134    -0.08320
C1007       C  0.93427230  0.56376743  0.89136749    -0.06760
C1008       C  0.95533550  0.53698711  0.87817980    -0.08320
C1009       C  0.95539163  0.62877625  0.96605309    -0.06760
C1010       C  0.93453658  0.61547108  0.94005298    -0.08320
C1011       C  0.86989002  0.95637117  0.96612866    -0.06760
C1012       C  0.88307569  0.93513676  0.94033364    -0.08320
C1013       C  0.93445177  0.88459435  0.94009562    -0.06760
C1014       C  0.95530859  0.87128641  0.96609291    -0.08320
C1015       C  0.93419992  0.93628328  0.89139650    -0.06760
C1016       C  0.95527486  0.96304974  0.87819786    -0.08320
C1017       C  0.88277808  0.88377746  0.88991149    -0.06760
C1018       C  0.86251862  0.86341843  0.86798239    -0.08320
C1019       C  0.88286482  0.61628721  0.88986492    -0.06760
C1020       C  0.86259877  0.63664254  0.86793817    -0.08320
C1021       C  0.63524720  0.86337307  0.86794142    -0.06760
C1022       C  0.61498228  0.88372877  0.88986848    -0.08320
C1023       C  0.88281950  0.88381010  0.61319817    -0.06760
C1024       C  0.86255470  0.86345292  0.63512423    -0.08320
C1025       C  0.61506626  0.61623918  0.88986267    -0.06800
C1026       C  0.63532768  0.63659733  0.86793434    -0.08320
C1027       C  0.63528361  0.86339711  0.63509677    -0.06760
C1028       C  0.61502073  0.88375358  0.61316813    -0.08320
C1029       C  0.86261068  0.63667806  0.63509262    -0.06760
C1030       C  0.88287203  0.61632089  0.61316369    -0.08320
C1031       C  0.63533929  0.63662042  0.63507705    -0.06760
C1032       C  0.61507607  0.61626265  0.61315020    -0.08320
loop_ 
_geom_bond_atom_site_label_1 
_geom_bond_atom_site_label_2 
_geom_bond_distance 
_geom_bond_site_symmetry_2 
_ccdc_geom_bond_type 
N1            N2   1.321       .  A
N1            N7   1.316       .  A
N1          Mn30   2.202       .  S
N2            C9   1.350       .  A
N3            N5   1.316       .  A
N3            N4   1.321       .  A
N3          Mn19   2.202       .  S
N4           C10   1.351       .  A
N5            N6   1.321       .  A
N5          Mn30   2.202       .  S
N6           C10   1.350       .  A
N7            N8   1.321       .  A
N7          Mn19   2.202       .  S
N8            C9   1.351       .  A
C9          C124   1.435       .  S
C10         C118   1.435       .  S
N11          N17   1.316       .  A
N11          N12   1.321       .  A
N11         Mn41   2.202       .  S
N12          C20   1.350       .  A
N13          N14   1.321       .  A
N13          N15   1.316       .  A
N13         Mn19   2.202       .  S
N14          C21   1.351       .  A
N15          N16   1.321       .  A
N15         Mn41   2.202       .  S
N16          C21   1.350       .  A
N17          N18   1.321       .  A
N17         Mn19   2.202       .  S
N18          C20   1.351       .  A
Mn19        Cl43   2.547       .  S
C20         C123   1.435       .  S
C21         C128   1.435       .  S
N22          N23   1.321       .  A
N22          N28   1.316       .  A
N22         Mn30   2.202       .  S
N23          C31   1.350       .  A
N24          N26   1.316       .  A
N24          N25   1.321       .  A
N24         Mn42   2.202       .  S
N25          C32   1.351       .  A
N26          N27   1.321       .  A
N26         Mn30   2.202       .  S
N27          C32   1.350       .  A
N28          N29   1.321       .  A
N28         Mn42   2.202       .  S
N29          C31   1.351       .  A
Mn30        Cl43   2.546       .  S
C31         C115   1.435       .  S
C32         C121   1.435       .  S
N33          N34   1.321       .  A
N33          N39   1.316       .  A
N33         Mn41   2.202       .  S
N34          C44   1.350       .  A
N35          N36   1.321       .  A
N35          N37   1.316       .  A
N35         Mn42   2.202       .  S
N36          C45   1.351       .  A
N37          N38   1.321       .  A
N37         Mn41   2.202       .  S
N38          C45   1.350       .  A
N39          N40   1.321       .  A
N39         Mn42   2.202       .  S
N40          C44   1.351       .  A
Mn41        Cl43   2.546       .  S
Mn42        Cl43   2.547       .  S
C44         C126   1.435       .  S
C45         C117   1.435       .  S
C46         C109   1.469       .  S
C46         C110   1.466       .  S
C46         C112   1.464       .  S
C46         C114   1.465       .  S
C47         C102   1.469       .  S
C47         C104   1.464       .  S
C47         C107   1.466       .  S
C47         C116   1.465       .  S
C48          C96   1.466       .  S
C48          C98   1.464       .  S
C48         C100   1.469       .  S
C48         C119   1.465       .  S
C49          C91   1.464       .  S
C49          C93   1.469       .  S
C49          C95   1.466       .  S
C49         C122   1.465       .  S
C50         C105   1.444       .  S
C50         C371   1.444   1_545  S
C50         C567   1.354   1_545  D
C51          C90   1.444   1_565  S
C51         C357   1.444       .  S
C51         C566   1.354   1_465  D
C52          C84   1.466       .  S
C52          C87   1.469       .  S
C52          C88   1.464       .  S
C52         C120   1.465       .  S
C53          C78   1.466       .  S
C53          C81   1.469       .  S
C53          C82   1.464       .  S
C53         C125   1.465       .  S
C54          C85   1.447       .  S
C54         C240   1.447   1_554  S
C54         C571   1.354       .  D
C55          C79   1.447       .  S
C55         C226   1.447   1_554  S
C55         C570   1.354   1_455  D
C56          C72   1.466       .  S
C56          C74   1.469       .  S
C56          C77   1.464       .  S
C56         C129   1.465       .  S
C57          C71   1.444       .  S
C57         C347   1.444   1_545  S
C57         C574   1.354       .  D
C58          C76   1.444       .  S
C58         C341   1.444   1_545  S
C58         C573   1.354   1_455  D
C59          C80   1.448       .  S
C59         C230   1.448   1_554  S
C59         C318   1.357       .  D
C60          C75   1.448       .  S
C60         C221   1.448   1_554  S
C60         C317   1.357   1_545  D
C61          C68   1.447       .  S
C61         C235   1.447   1_554  S
C61         C578   1.354       .  D
C62          C73   1.447       .  S
C62         C223   1.447   1_554  S
C62         C577   1.354   1_455  D
C63          C67   1.469       .  S
C63          C69   1.466       .  S
C63          C70   1.464       .  S
C63         C127   1.465       .  S
C64          C86   1.448       .  S
C64         C237   1.448   1_554  S
C64         C323   1.357       .  D
C65          C66   1.448       .  S
C65         C232   1.448   1_554  S
C65         C322   1.357   1_545  D
C66          C67   1.208       .  T
C68          C69   1.207       .  T
C70          C71   1.205       .  T
C72          C73   1.207       .  T
C74          C75   1.208       .  T
C76          C77   1.205       .  T
C78          C79   1.207       .  T
C80          C81   1.208       .  T
C82          C83   1.205       .  T
C83         C316   1.444       .  S
C84          C85   1.207       .  T
C86          C87   1.208       .  T
C88          C89   1.205       .  T
C89         C315   1.444       .  S
C90          C91   1.205       .  T
C92         C189   1.448       .  S
C92          C93   1.208       .  T
C94         C191   1.447       .  S
C94          C95   1.207       .  T
C96          C97   1.207       .  T
C97         C184   1.447       .  S
C98          C99   1.205       .  T
C99         C309   1.444       .  S
C100        C101   1.208       .  T
C101        C188   1.448       .  S
C102        C103   1.208       .  T
C103        C194   1.448       .  S
C104        C105   1.205       .  T
C106        C190   1.447       .  S
C106        C107   1.207       .  T
C108        C193   1.448       .  S
C108        C109   1.208       .  T
C110        C111   1.207       .  T
C111        C183   1.447       .  S
C112        C113   1.205       .  T
C113        C308   1.444       .  S
C114        C115   1.206       .  T
C116        C117   1.206       .  T
C118        C119   1.206       .  T
C120        C121   1.206       .  T
C122        C123   1.206       .  T
C124        C125   1.206       .  T
C126        C127   1.206       .  T
C128        C129   1.206       .  T
N130        N131   1.321       .  A
N130        N136   1.316       .  A
N130       Mn159   2.202       .  S
N131        C138   1.350       .  A
N132        N134   1.316       .  A
N132        N133   1.321       .  A
N132       Mn148   2.202       .  S
N133        C139   1.351       .  A
N134        N135   1.321       .  A
N134       Mn159   2.202       .  S
N135        C139   1.350       .  A
N136        N137   1.321       .  A
N136       Mn148   2.202       .  S
N137        C138   1.351       .  A
C138        C253   1.435       .  S
C139        C247   1.435       .  S
N140        N146   1.316       .  A
N140        N141   1.321       .  A
N140       Mn170   2.202       .  S
N141        C149   1.350       .  A
N142        N143   1.321       .  A
N142        N144   1.316       .  A
N142       Mn148   2.202       .  S
N143        C150   1.351       .  A
N144        N145   1.321       .  A
N144       Mn170   2.202       .  S
N145        C150   1.350       .  A
N146        N147   1.321       .  A
N146       Mn148   2.202       .  S
N147        C149   1.351       .  A
Mn148      Cl172   2.547       .  S
C149        C252   1.435       .  S
C150        C257   1.435       .  S
N151        N152   1.321       .  A
N151        N157   1.316       .  A
N151       Mn159   2.202       .  S
N152        C160   1.350       .  A
N153        N155   1.316       .  A
N153        N154   1.321       .  A
N153       Mn171   2.202       .  S
N154        C161   1.351       .  A
N155        N156   1.321       .  A
N155       Mn159   2.202       .  S
N156        C161   1.350       .  A
N157        N158   1.321       .  A
N157       Mn171   2.202       .  S
N158        C160   1.351       .  A
Mn159      Cl172   2.546       .  S
C160        C244   1.435       .  S
C161        C250   1.435       .  S
N162        N163   1.321       .  A
N162        N168   1.316       .  A
N162       Mn170   2.202       .  S
N163        C173   1.350       .  A
N164        N165   1.321       .  A
N164        N166   1.316       .  A
N164       Mn171   2.202       .  S
N165        C174   1.351       .  A
N166        N167   1.321       .  A
N166       Mn170   2.202       .  S
N167        C174   1.350       .  A
N168        N169   1.321       .  A
N168       Mn171   2.202       .  S
N169        C173   1.351       .  A
Mn170      Cl172   2.546       .  S
Mn171      Cl172   2.547       .  S
C173        C255   1.435       .  S
C174        C246   1.435       .  S
C175        C238   1.469       .  S
C175        C239   1.466       .  S
C175        C241   1.464       .  S
C175        C243   1.465       .  S
C176        C231   1.469       .  S
C176        C233   1.464       .  S
C176        C236   1.466       .  S
C176        C245   1.465       .  S
C177        C225   1.466       .  S
C177        C227   1.464       .  S
C177        C229   1.469       .  S
C177        C248   1.465       .  S
C178        C220   1.464       .  S
C178        C222   1.469       .  S
C178        C224   1.466       .  S
C178        C251   1.465       .  S
C179        C234   1.444       .  S
C179        C500   1.444   1_545  S
C179        C696   1.354   1_545  D
C180        C219   1.444   1_565  S
C180        C486   1.444       .  S
C180        C695   1.354   1_465  D
C181        C213   1.466       .  S
C181        C216   1.469       .  S
C181        C217   1.464       .  S
C181        C249   1.465       .  S
C182        C207   1.466       .  S
C182        C210   1.469       .  S
C182        C211   1.464       .  S
C182        C254   1.465       .  S
C183        C214   1.447       .  S
C183        C700   1.354       .  D
C184        C208   1.447       .  S
C184        C699   1.354   1_455  D
C185        C201   1.466       .  S
C185        C203   1.469       .  S
C185        C206   1.464       .  S
C185        C258   1.465       .  S
C186        C200   1.444       .  S
C186        C476   1.444   1_545  S
C186        C703   1.354       .  D
C187        C205   1.444       .  S
C187        C470   1.444   1_545  S
C187        C702   1.354   1_455  D
C188        C209   1.448       .  S
C188        C447   1.357       .  D
C189        C204   1.448       .  S
C189        C446   1.357   1_545  D
C190        C197   1.447       .  S
C190        C707   1.354       .  D
C191        C202   1.447       .  S
C191        C706   1.354   1_455  D
C192        C196   1.469       .  S
C192        C198   1.466       .  S
C192        C199   1.464       .  S
C192        C256   1.465       .  S
C193        C215   1.448       .  S
C193        C452   1.357       .  D
C194        C195   1.448       .  S
C194        C451   1.357   1_545  D
C195        C196   1.208       .  T
C197        C198   1.207       .  T
C199        C200   1.205       .  T
C201        C202   1.207       .  T
C203        C204   1.208       .  T
C205        C206   1.205       .  T
C207        C208   1.207       .  T
C209        C210   1.208       .  T
C211        C212   1.205       .  T
C212        C445   1.444       .  S
C213        C214   1.207       .  T
C215        C216   1.208       .  T
C217        C218   1.205       .  T
C218        C444   1.444       .  S
C219        C220   1.205       .  T
C221        C222   1.208       .  T
C223        C224   1.207       .  T
C225        C226   1.207       .  T
C227        C228   1.205       .  T
C228        C438   1.444       .  S
C229        C230   1.208       .  T
C231        C232   1.208       .  T
C233        C234   1.205       .  T
C235        C236   1.207       .  T
C237        C238   1.208       .  T
C239        C240   1.207       .  T
C241        C242   1.205       .  T
C242        C437   1.444       .  S
C243        C244   1.206       .  T
C245        C246   1.206       .  T
C247        C248   1.206       .  T
C249        C250   1.206       .  T
C251        C252   1.206       .  T
C253        C254   1.206       .  T
C255        C256   1.206       .  T
C257        C258   1.206       .  T
N259        N260   1.321       .  A
N259        N265   1.316       .  A
N259       Mn288   2.202       .  S
N260        C267   1.350       .  A
N261        N263   1.316       .  A
N261        N262   1.321       .  A
N261       Mn277   2.202       .  S
N262        C268   1.351       .  A
N263        N264   1.321       .  A
N263       Mn288   2.202       .  S
N264        C268   1.350       .  A
N265        N266   1.321       .  A
N265       Mn277   2.202       .  S
N266        C267   1.351       .  A
C267        C382   1.435       .  S
C268        C376   1.435       .  S
N269        N275   1.316       .  A
N269        N270   1.321       .  A
N269       Mn299   2.202       .  S
N270        C278   1.350       .  A
N271        N272   1.321       .  A
N271        N273   1.316       .  A
N271       Mn277   2.202       .  S
N272        C279   1.351       .  A
N273        N274   1.321       .  A
N273       Mn299   2.202       .  S
N274        C279   1.350       .  A
N275        N276   1.321       .  A
N275       Mn277   2.202       .  S
N276        C278   1.351       .  A
Mn277      Cl301   2.547       .  S
C278        C381   1.435       .  S
C279        C386   1.435       .  S
N280        N281   1.321       .  A
N280        N286   1.316       .  A
N280       Mn288   2.202       .  S
N281        C289   1.350       .  A
N282        N284   1.316       .  A
N282        N283   1.321       .  A
N282       Mn300   2.202       .  S
N283        C290   1.351       .  A
N284        N285   1.321       .  A
N284       Mn288   2.202       .  S
N285        C290   1.350       .  A
N286        N287   1.321       .  A
N286       Mn300   2.202       .  S
N287        C289   1.351       .  A
Mn288      Cl301   2.546       .  S
C289        C373   1.435       .  S
C290        C379   1.435       .  S
N291        N292   1.321       .  A
N291        N297   1.316       .  A
N291       Mn299   2.202       .  S
N292        C302   1.350       .  A
N293        N294   1.321       .  A
N293        N295   1.316       .  A
N293       Mn300   2.202       .  S
N294        C303   1.351       .  A
N295        N296   1.321       .  A
N295       Mn299   2.202       .  S
N296        C303   1.350       .  A
N297        N298   1.321       .  A
N297       Mn300   2.202       .  S
N298        C302   1.351       .  A
Mn299      Cl301   2.546       .  S
Mn300      Cl301   2.547       .  S
C302        C384   1.435       .  S
C303        C375   1.435       .  S
C304        C367   1.469       .  S
C304        C368   1.466       .  S
C304        C370   1.464       .  S
C304        C372   1.465       .  S
C305        C360   1.469       .  S
C305        C362   1.464       .  S
C305        C365   1.466       .  S
C305        C374   1.465       .  S
C306        C354   1.466       .  S
C306        C356   1.464       .  S
C306        C358   1.469       .  S
C306        C377   1.465       .  S
C307        C349   1.464       .  S
C307        C351   1.469       .  S
C307        C353   1.466       .  S
C307        C380   1.465       .  S
C308        C363   1.444       .  S
C308        C825   1.354       .  D
C309        C348   1.444       .  S
C309        C824   1.354   1_455  D
C310        C342   1.466       .  S
C310        C345   1.469       .  S
C310        C346   1.464       .  S
C310        C378   1.465       .  S
C311        C336   1.466       .  S
C311        C339   1.469       .  S
C311        C340   1.464       .  S
C311        C383   1.465       .  S
C312        C343   1.447       .  S
C312        C498   1.447   1_554  S
C312        C829   1.354       .  D
C313        C337   1.447       .  S
C313        C484   1.447   1_554  S
C313        C828   1.354   1_455  D
C314        C330   1.466       .  S
C314        C332   1.469       .  S
C314        C335   1.464       .  S
C314        C387   1.465       .  S
C315        C329   1.444       .  S
C315        C832   1.354       .  D
C316        C334   1.444       .  S
C316        C831   1.354   1_455  D
C317        C338   1.448       .  S
C317        C488   1.448   1_554  S
C318        C333   1.448       .  S
C318        C479   1.448   1_554  S
C319        C326   1.447       .  S
C319        C493   1.447   1_554  S
C319        C836   1.354       .  D
C320        C331   1.447       .  S
C320        C481   1.447   1_554  S
C320        C835   1.354   1_455  D
C321        C325   1.469       .  S
C321        C327   1.466       .  S
C321        C328   1.464       .  S
C321        C385   1.465       .  S
C322        C344   1.448       .  S
C322        C495   1.448   1_554  S
C323        C324   1.448       .  S
C323        C490   1.448   1_554  S
C324        C325   1.208       .  T
C326        C327   1.207       .  T
C328        C329   1.205       .  T
C330        C331   1.207       .  T
C332        C333   1.208       .  T
C334        C335   1.205       .  T
C336        C337   1.207       .  T
C338        C339   1.208       .  T
C340        C341   1.205       .  T
C342        C343   1.207       .  T
C344        C345   1.208       .  T
C346        C347   1.205       .  T
C348        C349   1.205       .  T
C350        C447   1.448       .  S
C350        C351   1.208       .  T
C352        C449   1.447       .  S
C352        C353   1.207       .  T
C354        C355   1.207       .  T
C355        C442   1.447       .  S
C356        C357   1.205       .  T
C358        C359   1.208       .  T
C359        C446   1.448       .  S
C360        C361   1.208       .  T
C361        C452   1.448       .  S
C362        C363   1.205       .  T
C364        C448   1.447       .  S
C364        C365   1.207       .  T
C366        C451   1.448       .  S
C366        C367   1.208       .  T
C368        C369   1.207       .  T
C369        C441   1.447       .  S
C370        C371   1.205       .  T
C372        C373   1.206       .  T
C374        C375   1.206       .  T
C376        C377   1.206       .  T
C378        C379   1.206       .  T
C380        C381   1.206       .  T
C382        C383   1.206       .  T
C384        C385   1.206       .  T
C386        C387   1.206       .  T
N388        N389   1.321       .  A
N388        N394   1.316       .  A
N388       Mn417   2.202       .  S
N389        C396   1.350       .  A
N390        N392   1.316       .  A
N390        N391   1.321       .  A
N390       Mn406   2.202       .  S
N391        C397   1.351       .  A
N392        N393   1.321       .  A
N392       Mn417   2.202       .  S
N393        C397   1.350       .  A
N394        N395   1.321       .  A
N394       Mn406   2.202       .  S
N395        C396   1.351       .  A
C396        C511   1.435       .  S
C397        C505   1.435       .  S
N398        N404   1.316       .  A
N398        N399   1.321       .  A
N398       Mn428   2.202       .  S
N399        C407   1.350       .  A
N400        N401   1.321       .  A
N400        N402   1.316       .  A
N400       Mn406   2.202       .  S
N401        C408   1.351       .  A
N402        N403   1.321       .  A
N402       Mn428   2.202       .  S
N403        C408   1.350       .  A
N404        N405   1.321       .  A
N404       Mn406   2.202       .  S
N405        C407   1.351       .  A
Mn406      Cl430   2.547       .  S
C407        C510   1.435       .  S
C408        C515   1.435       .  S
N409        N410   1.321       .  A
N409        N415   1.316       .  A
N409       Mn417   2.202       .  S
N410        C418   1.350       .  A
N411        N413   1.316       .  A
N411        N412   1.321       .  A
N411       Mn429   2.202       .  S
N412        C419   1.351       .  A
N413        N414   1.321       .  A
N413       Mn417   2.202       .  S
N414        C419   1.350       .  A
N415        N416   1.321       .  A
N415       Mn429   2.202       .  S
N416        C418   1.351       .  A
Mn417      Cl430   2.546       .  S
C418        C502   1.435       .  S
C419        C508   1.435       .  S
N420        N421   1.321       .  A
N420        N426   1.316       .  A
N420       Mn428   2.202       .  S
N421        C431   1.350       .  A
N422        N423   1.321       .  A
N422        N424   1.316       .  A
N422       Mn429   2.202       .  S
N423        C432   1.351       .  A
N424        N425   1.321       .  A
N424       Mn428   2.202       .  S
N425        C432   1.350       .  A
N426        N427   1.321       .  A
N426       Mn429   2.202       .  S
N427        C431   1.351       .  A
Mn428      Cl430   2.546       .  S
Mn429      Cl430   2.547       .  S
C431        C513   1.435       .  S
C432        C504   1.435       .  S
C433        C496   1.469       .  S
C433        C497   1.466       .  S
C433        C499   1.464       .  S
C433        C501   1.465       .  S
C434        C489   1.469       .  S
C434        C491   1.464       .  S
C434        C494   1.466       .  S
C434        C503   1.465       .  S
C435        C483   1.466       .  S
C435        C485   1.464       .  S
C435        C487   1.469       .  S
C435        C506   1.465       .  S
C436        C478   1.464       .  S
C436        C480   1.469       .  S
C436        C482   1.466       .  S
C436        C509   1.465       .  S
C437        C492   1.444       .  S
C437        C954   1.354       .  D
C438        C477   1.444       .  S
C438        C953   1.354   1_455  D
C439        C471   1.466       .  S
C439        C474   1.469       .  S
C439        C475   1.464       .  S
C439        C507   1.465       .  S
C440        C465   1.466       .  S
C440        C468   1.469       .  S
C440        C469   1.464       .  S
C440        C512   1.465       .  S
C441        C472   1.447       .  S
C441        C958   1.354       .  D
C442        C466   1.447       .  S
C442        C957   1.354   1_455  D
C443        C459   1.466       .  S
C443        C461   1.469       .  S
C443        C464   1.464       .  S
C443        C516   1.465       .  S
C444        C458   1.444       .  S
C444        C961   1.354       .  D
C445        C463   1.444       .  S
C445        C960   1.354   1_455  D
C446        C467   1.448       .  S
C447        C462   1.448       .  S
C448        C455   1.447       .  S
C448        C965   1.354       .  D
C449        C460   1.447       .  S
C449        C964   1.354   1_455  D
C450        C454   1.469       .  S
C450        C456   1.466       .  S
C450        C457   1.464       .  S
C450        C514   1.465       .  S
C451        C473   1.448       .  S
C452        C453   1.448       .  S
C453        C454   1.208       .  T
C455        C456   1.207       .  T
C457        C458   1.205       .  T
C459        C460   1.207       .  T
C461        C462   1.208       .  T
C463        C464   1.205       .  T
C465        C466   1.207       .  T
C467        C468   1.208       .  T
C469        C470   1.205       .  T
C471        C472   1.207       .  T
C473        C474   1.208       .  T
C475        C476   1.205       .  T
C477        C478   1.205       .  T
C479        C480   1.208       .  T
C481        C482   1.207       .  T
C483        C484   1.207       .  T
C485        C486   1.205       .  T
C487        C488   1.208       .  T
C489        C490   1.208       .  T
C491        C492   1.205       .  T
C493        C494   1.207       .  T
C495        C496   1.208       .  T
C497        C498   1.207       .  T
C499        C500   1.205       .  T
C501        C502   1.206       .  T
C503        C504   1.206       .  T
C505        C506   1.206       .  T
C507        C508   1.206       .  T
C509        C510   1.206       .  T
C511        C512   1.206       .  T
C513        C514   1.206       .  T
C515        C516   1.206       .  T
N517        N518   1.321       .  A
N517        N523   1.316       .  A
N517       Mn546   2.202       .  S
N518        C525   1.350       .  A
N519        N521   1.316       .  A
N519        N520   1.321       .  A
N519       Mn535   2.202       .  S
N520        C526   1.351       .  A
N521        N522   1.321       .  A
N521       Mn546   2.202       .  S
N522        C526   1.350       .  A
N523        N524   1.321       .  A
N523       Mn535   2.202       .  S
N524        C525   1.351       .  A
C525        C640   1.435       .  S
C526        C634   1.435       .  S
N527        N533   1.316       .  A
N527        N528   1.321       .  A
N527       Mn557   2.202       .  S
N528        C536   1.350       .  A
N529        N530   1.321       .  A
N529        N531   1.316       .  A
N529       Mn535   2.202       .  S
N530        C537   1.351       .  A
N531        N532   1.321       .  A
N531       Mn557   2.202       .  S
N532        C537   1.350       .  A
N533        N534   1.321       .  A
N533       Mn535   2.202       .  S
N534        C536   1.351       .  A
Mn535      Cl559   2.547       .  S
C536        C639   1.435       .  S
C537        C644   1.435       .  S
N538        N539   1.321       .  A
N538        N544   1.316       .  A
N538       Mn546   2.202       .  S
N539        C547   1.350       .  A
N540        N542   1.316       .  A
N540        N541   1.321       .  A
N540       Mn558   2.202       .  S
N541        C548   1.351       .  A
N542        N543   1.321       .  A
N542       Mn546   2.202       .  S
N543        C548   1.350       .  A
N544        N545   1.321       .  A
N544       Mn558   2.202       .  S
N545        C547   1.351       .  A
Mn546      Cl559   2.546       .  S
C547        C631   1.435       .  S
C548        C637   1.435       .  S
N549        N550   1.321       .  A
N549        N555   1.316       .  A
N549       Mn557   2.202       .  S
N550        C560   1.350       .  A
N551        N552   1.321       .  A
N551        N553   1.316       .  A
N551       Mn558   2.202       .  S
N552        C561   1.351       .  A
N553        N554   1.321       .  A
N553       Mn557   2.202       .  S
N554        C561   1.350       .  A
N555        N556   1.321       .  A
N555       Mn558   2.202       .  S
N556        C560   1.351       .  A
Mn557      Cl559   2.546       .  S
Mn558      Cl559   2.547       .  S
C560        C642   1.435       .  S
C561        C633   1.435       .  S
C562        C625   1.469       .  S
C562        C626   1.466       .  S
C562        C628   1.464       .  S
C562        C630   1.465       .  S
C563        C618   1.469       .  S
C563        C620   1.464       .  S
C563        C623   1.466       .  S
C563        C632   1.465       .  S
C564        C612   1.466       .  S
C564        C614   1.464       .  S
C564        C616   1.469       .  S
C564        C635   1.465       .  S
C565        C607   1.464       .  S
C565        C609   1.469       .  S
C565        C611   1.466       .  S
C565        C638   1.465       .  S
C566        C621   1.444       .  S
C566        C887   1.444   1_545  S
C567        C606   1.444   1_565  S
C567        C873   1.444       .  S
C568        C600   1.466       .  S
C568        C603   1.469       .  S
C568        C604   1.464       .  S
C568        C636   1.465       .  S
C569        C594   1.466       .  S
C569        C597   1.469       .  S
C569        C598   1.464       .  S
C569        C641   1.465       .  S
C570        C601   1.447       .  S
C570        C756   1.447   1_554  S
C571        C595   1.447       .  S
C571        C742   1.447   1_554  S
C572        C588   1.466       .  S
C572        C590   1.469       .  S
C572        C593   1.464       .  S
C572        C645   1.465       .  S
C573        C587   1.444       .  S
C573        C863   1.444   1_545  S
C574        C592   1.444       .  S
C574        C857   1.444   1_545  S
C575        C596   1.448       .  S
C575        C746   1.448   1_554  S
C575        C834   1.357       .  D
C576        C591   1.448       .  S
C576        C737   1.448   1_554  S
C576        C833   1.357   1_545  D
C577        C584   1.447       .  S
C577        C751   1.447   1_554  S
C578        C589   1.447       .  S
C578        C739   1.447   1_554  S
C579        C583   1.469       .  S
C579        C585   1.466       .  S
C579        C586   1.464       .  S
C579        C643   1.465       .  S
C580        C602   1.448       .  S
C580        C753   1.448   1_554  S
C580        C839   1.357       .  D
C581        C582   1.448       .  S
C581        C748   1.448   1_554  S
C581        C838   1.357   1_545  D
C582        C583   1.208       .  T
C584        C585   1.207       .  T
C586        C587   1.205       .  T
C588        C589   1.207       .  T
C590        C591   1.208       .  T
C592        C593   1.205       .  T
C594        C595   1.207       .  T
C596        C597   1.208       .  T
C598        C599   1.205       .  T
C599        C832   1.444       .  S
C600        C601   1.207       .  T
C602        C603   1.208       .  T
C604        C605   1.205       .  T
C605        C831   1.444       .  S
C606        C607   1.205       .  T
C608        C705   1.448       .  S
C608        C609   1.208       .  T
C610        C707   1.447       .  S
C610        C611   1.207       .  T
C612        C613   1.207       .  T
C613        C700   1.447       .  S
C614        C615   1.205       .  T
C615        C825   1.444       .  S
C616        C617   1.208       .  T
C617        C704   1.448       .  S
C618        C619   1.208       .  T
C619        C710   1.448       .  S
C620        C621   1.205       .  T
C622        C706   1.447       .  S
C622        C623   1.207       .  T
C624        C709   1.448       .  S
C624        C625   1.208       .  T
C626        C627   1.207       .  T
C627        C699   1.447       .  S
C628        C629   1.205       .  T
C629        C824   1.444       .  S
C630        C631   1.206       .  T
C632        C633   1.206       .  T
C634        C635   1.206       .  T
C636        C637   1.206       .  T
C638        C639   1.206       .  T
C640        C641   1.206       .  T
C642        C643   1.206       .  T
C644        C645   1.206       .  T
N646        N647   1.321       .  A
N646        N652   1.316       .  A
N646       Mn675   2.202       .  S
N647        C654   1.350       .  A
N648        N650   1.316       .  A
N648        N649   1.321       .  A
N648       Mn664   2.202       .  S
N649        C655   1.351       .  A
N650        N651   1.321       .  A
N650       Mn675   2.202       .  S
N651        C655   1.350       .  A
N652        N653   1.321       .  A
N652       Mn664   2.202       .  S
N653        C654   1.351       .  A
C654        C769   1.435       .  S
C655        C763   1.435       .  S
N656        N662   1.316       .  A
N656        N657   1.321       .  A
N656       Mn686   2.202       .  S
N657        C665   1.350       .  A
N658        N659   1.321       .  A
N658        N660   1.316       .  A
N658       Mn664   2.202       .  S
N659        C666   1.351       .  A
N660        N661   1.321       .  A
N660       Mn686   2.202       .  S
N661        C666   1.350       .  A
N662        N663   1.321       .  A
N662       Mn664   2.202       .  S
N663        C665   1.351       .  A
Mn664      Cl688   2.547       .  S
C665        C768   1.435       .  S
C666        C773   1.435       .  S
N667        N668   1.321       .  A
N667        N673   1.316       .  A
N667       Mn675   2.202       .  S
N668        C676   1.350       .  A
N669        N671   1.316       .  A
N669        N670   1.321       .  A
N669       Mn687   2.202       .  S
N670        C677   1.351       .  A
N671        N672   1.321       .  A
N671       Mn675   2.202       .  S
N672        C677   1.350       .  A
N673        N674   1.321       .  A
N673       Mn687   2.202       .  S
N674        C676   1.351       .  A
Mn675      Cl688   2.546       .  S
C676        C760   1.435       .  S
C677        C766   1.435       .  S
N678        N679   1.321       .  A
N678        N684   1.316       .  A
N678       Mn686   2.202       .  S
N679        C689   1.350       .  A
N680        N681   1.321       .  A
N680        N682   1.316       .  A
N680       Mn687   2.202       .  S
N681        C690   1.351       .  A
N682        N683   1.321       .  A
N682       Mn686   2.202       .  S
N683        C690   1.350       .  A
N684        N685   1.321       .  A
N684       Mn687   2.202       .  S
N685        C689   1.351       .  A
Mn686      Cl688   2.546       .  S
Mn687      Cl688   2.547       .  S
C689        C771   1.435       .  S
C690        C762   1.435       .  S
C691        C754   1.469       .  S
C691        C755   1.466       .  S
C691        C757   1.464       .  S
C691        C759   1.465       .  S
C692        C747   1.469       .  S
C692        C749   1.464       .  S
C692        C752   1.466       .  S
C692        C761   1.465       .  S
C693        C741   1.466       .  S
C693        C743   1.464       .  S
C693        C745   1.469       .  S
C693        C764   1.465       .  S
C694        C736   1.464       .  S
C694        C738   1.469       .  S
C694        C740   1.466       .  S
C694        C767   1.465       .  S
C695        C750   1.444       .  S
C695       C1016   1.444   1_545  S
C696        C735   1.444   1_565  S
C696       C1002   1.444       .  S
C697        C729   1.466       .  S
C697        C732   1.469       .  S
C697        C733   1.464       .  S
C697        C765   1.465       .  S
C698        C723   1.466       .  S
C698        C726   1.469       .  S
C698        C727   1.464       .  S
C698        C770   1.465       .  S
C699        C730   1.447       .  S
C700        C724   1.447       .  S
C701        C717   1.466       .  S
C701        C719   1.469       .  S
C701        C722   1.464       .  S
C701        C774   1.465       .  S
C702        C716   1.444       .  S
C702        C992   1.444   1_545  S
C703        C721   1.444       .  S
C703        C986   1.444   1_545  S
C704        C725   1.448       .  S
C704        C963   1.357       .  D
C705        C720   1.448       .  S
C705        C962   1.357   1_545  D
C706        C713   1.447       .  S
C707        C718   1.447       .  S
C708        C712   1.469       .  S
C708        C714   1.466       .  S
C708        C715   1.464       .  S
C708        C772   1.465       .  S
C709        C731   1.448       .  S
C709        C968   1.357       .  D
C710        C711   1.448       .  S
C710        C967   1.357   1_545  D
C711        C712   1.208       .  T
C713        C714   1.207       .  T
C715        C716   1.205       .  T
C717        C718   1.207       .  T
C719        C720   1.208       .  T
C721        C722   1.205       .  T
C723        C724   1.207       .  T
C725        C726   1.208       .  T
C727        C728   1.205       .  T
C728        C961   1.444       .  S
C729        C730   1.207       .  T
C731        C732   1.208       .  T
C733        C734   1.205       .  T
C734        C960   1.444       .  S
C735        C736   1.205       .  T
C737        C738   1.208       .  T
C739        C740   1.207       .  T
C741        C742   1.207       .  T
C743        C744   1.205       .  T
C744        C954   1.444       .  S
C745        C746   1.208       .  T
C747        C748   1.208       .  T
C749        C750   1.205       .  T
C751        C752   1.207       .  T
C753        C754   1.208       .  T
C755        C756   1.207       .  T
C757        C758   1.205       .  T
C758        C953   1.444       .  S
C759        C760   1.206       .  T
C761        C762   1.206       .  T
C763        C764   1.206       .  T
C765        C766   1.206       .  T
C767        C768   1.206       .  T
C769        C770   1.206       .  T
C771        C772   1.206       .  T
C773        C774   1.206       .  T
N775        N776   1.321       .  A
N775        N781   1.316       .  A
N775       Mn804   2.202       .  S
N776        C783   1.350       .  A
N777        N779   1.316       .  A
N777        N778   1.321       .  A
N777       Mn793   2.202       .  S
N778        C784   1.351       .  A
N779        N780   1.321       .  A
N779       Mn804   2.202       .  S
N780        C784   1.350       .  A
N781        N782   1.321       .  A
N781       Mn793   2.202       .  S
N782        C783   1.351       .  A
C783        C898   1.435       .  S
C784        C892   1.435       .  S
N785        N791   1.316       .  A
N785        N786   1.321       .  A
N785       Mn815   2.202       .  S
N786        C794   1.350       .  A
N787        N788   1.321       .  A
N787        N789   1.316       .  A
N787       Mn793   2.202       .  S
N788        C795   1.351       .  A
N789        N790   1.321       .  A
N789       Mn815   2.202       .  S
N790        C795   1.350       .  A
N791        N792   1.321       .  A
N791       Mn793   2.202       .  S
N792        C794   1.351       .  A
Mn793      Cl817   2.547       .  S
C794        C897   1.435       .  S
C795        C902   1.435       .  S
N796        N797   1.321       .  A
N796        N802   1.316       .  A
N796       Mn804   2.202       .  S
N797        C805   1.350       .  A
N798        N800   1.316       .  A
N798        N799   1.321       .  A
N798       Mn816   2.202       .  S
N799        C806   1.351       .  A
N800        N801   1.321       .  A
N800       Mn804   2.202       .  S
N801        C806   1.350       .  A
N802        N803   1.321       .  A
N802       Mn816   2.202       .  S
N803        C805   1.351       .  A
Mn804      Cl817   2.546       .  S
C805        C889   1.435       .  S
C806        C895   1.435       .  S
N807        N808   1.321       .  A
N807        N813   1.316       .  A
N807       Mn815   2.202       .  S
N808        C818   1.350       .  A
N809        N810   1.321       .  A
N809        N811   1.316       .  A
N809       Mn816   2.202       .  S
N810        C819   1.351       .  A
N811        N812   1.321       .  A
N811       Mn815   2.202       .  S
N812        C819   1.350       .  A
N813        N814   1.321       .  A
N813       Mn816   2.202       .  S
N814        C818   1.351       .  A
Mn815      Cl817   2.546       .  S
Mn816      Cl817   2.547       .  S
C818        C900   1.435       .  S
C819        C891   1.435       .  S
C820        C883   1.469       .  S
C820        C884   1.466       .  S
C820        C886   1.464       .  S
C820        C888   1.465       .  S
C821        C876   1.469       .  S
C821        C878   1.464       .  S
C821        C881   1.466       .  S
C821        C890   1.465       .  S
C822        C870   1.466       .  S
C822        C872   1.464       .  S
C822        C874   1.469       .  S
C822        C893   1.465       .  S
C823        C865   1.464       .  S
C823        C867   1.469       .  S
C823        C869   1.466       .  S
C823        C896   1.465       .  S
C824        C879   1.444       .  S
C825        C864   1.444       .  S
C826        C858   1.466       .  S
C826        C861   1.469       .  S
C826        C862   1.464       .  S
C826        C894   1.465       .  S
C827        C852   1.466       .  S
C827        C855   1.469       .  S
C827        C856   1.464       .  S
C827        C899   1.465       .  S
C828        C859   1.447       .  S
C828       C1014   1.447   1_554  S
C829        C853   1.447       .  S
C829       C1000   1.447   1_554  S
C830        C846   1.466       .  S
C830        C848   1.469       .  S
C830        C851   1.464       .  S
C830        C903   1.465       .  S
C831        C845   1.444       .  S
C832        C850   1.444       .  S
C833        C854   1.448       .  S
C833       C1004   1.448   1_554  S
C834        C849   1.448       .  S
C834        C995   1.448   1_554  S
C835        C842   1.447       .  S
C835       C1009   1.447   1_554  S
C836        C847   1.447       .  S
C836        C997   1.447   1_554  S
C837        C841   1.469       .  S
C837        C843   1.466       .  S
C837        C844   1.464       .  S
C837        C901   1.465       .  S
C838        C860   1.448       .  S
C838       C1011   1.448   1_554  S
C839        C840   1.448       .  S
C839       C1006   1.448   1_554  S
C840        C841   1.208       .  T
C842        C843   1.207       .  T
C844        C845   1.205       .  T
C846        C847   1.207       .  T
C848        C849   1.208       .  T
C850        C851   1.205       .  T
C852        C853   1.207       .  T
C854        C855   1.208       .  T
C856        C857   1.205       .  T
C858        C859   1.207       .  T
C860        C861   1.208       .  T
C862        C863   1.205       .  T
C864        C865   1.205       .  T
C866        C963   1.448       .  S
C866        C867   1.208       .  T
C868        C965   1.447       .  S
C868        C869   1.207       .  T
C870        C871   1.207       .  T
C871        C958   1.447       .  S
C872        C873   1.205       .  T
C874        C875   1.208       .  T
C875        C962   1.448       .  S
C876        C877   1.208       .  T
C877        C968   1.448       .  S
C878        C879   1.205       .  T
C880        C964   1.447       .  S
C880        C881   1.207       .  T
C882        C967   1.448       .  S
C882        C883   1.208       .  T
C884        C885   1.207       .  T
C885        C957   1.447       .  S
C886        C887   1.205       .  T
C888        C889   1.206       .  T
C890        C891   1.206       .  T
C892        C893   1.206       .  T
C894        C895   1.206       .  T
C896        C897   1.206       .  T
C898        C899   1.206       .  T
C900        C901   1.206       .  T
C902        C903   1.206       .  T
N904        N905   1.321       .  A
N904        N910   1.316       .  A
N904       Mn933   2.202       .  S
N905        C912   1.350       .  A
N906        N908   1.316       .  A
N906        N907   1.321       .  A
N906       Mn922   2.202       .  S
N907        C913   1.351       .  A
N908        N909   1.321       .  A
N908       Mn933   2.202       .  S
N909        C913   1.350       .  A
N910        N911   1.321       .  A
N910       Mn922   2.202       .  S
N911        C912   1.351       .  A
C912       C1027   1.435       .  S
C913       C1021   1.435       .  S
N914        N920   1.316       .  A
N914        N915   1.321       .  A
N914       Mn944   2.202       .  S
N915        C923   1.350       .  A
N916        N917   1.321       .  A
N916        N918   1.316       .  A
N916       Mn922   2.202       .  S
N917        C924   1.351       .  A
N918        N919   1.321       .  A
N918       Mn944   2.202       .  S
N919        C924   1.350       .  A
N920        N921   1.321       .  A
N920       Mn922   2.202       .  S
N921        C923   1.351       .  A
Mn922      Cl946   2.547       .  S
C923       C1026   1.435       .  S
C924       C1031   1.435       .  S
N925        N926   1.321       .  A
N925        N931   1.316       .  A
N925       Mn933   2.202       .  S
N926        C934   1.350       .  A
N927        N929   1.316       .  A
N927        N928   1.321       .  A
N927       Mn945   2.202       .  S
N928        C935   1.351       .  A
N929        N930   1.321       .  A
N929       Mn933   2.202       .  S
N930        C935   1.350       .  A
N931        N932   1.321       .  A
N931       Mn945   2.202       .  S
N932        C934   1.351       .  A
Mn933      Cl946   2.546       .  S
C934       C1018   1.435       .  S
C935       C1024   1.435       .  S
N936        N937   1.321       .  A
N936        N942   1.316       .  A
N936       Mn944   2.202       .  S
N937        C947   1.350       .  A
N938        N939   1.321       .  A
N938        N940   1.316       .  A
N938       Mn945   2.202       .  S
N939        C948   1.351       .  A
N940        N941   1.321       .  A
N940       Mn944   2.202       .  S
N941        C948   1.350       .  A
N942        N943   1.321       .  A
N942       Mn945   2.202       .  S
N943        C947   1.351       .  A
Mn944      Cl946   2.546       .  S
Mn945      Cl946   2.547       .  S
C947       C1029   1.435       .  S
C948       C1020   1.435       .  S
C949       C1012   1.469       .  S
C949       C1013   1.466       .  S
C949       C1015   1.464       .  S
C949       C1017   1.465       .  S
C950       C1005   1.469       .  S
C950       C1007   1.464       .  S
C950       C1010   1.466       .  S
C950       C1019   1.465       .  S
C951        C999   1.466       .  S
C951       C1001   1.464       .  S
C951       C1003   1.469       .  S
C951       C1022   1.465       .  S
C952        C994   1.464       .  S
C952        C996   1.469       .  S
C952        C998   1.466       .  S
C952       C1025   1.465       .  S
C953       C1008   1.444       .  S
C954        C993   1.444       .  S
C955        C987   1.466       .  S
C955        C990   1.469       .  S
C955        C991   1.464       .  S
C955       C1023   1.465       .  S
C956        C981   1.466       .  S
C956        C984   1.469       .  S
C956        C985   1.464       .  S
C956       C1028   1.465       .  S
C957        C988   1.447       .  S
C958        C982   1.447       .  S
C959        C975   1.466       .  S
C959        C977   1.469       .  S
C959        C980   1.464       .  S
C959       C1032   1.465       .  S
C960        C974   1.444       .  S
C961        C979   1.444       .  S
C962        C983   1.448       .  S
C963        C978   1.448       .  S
C964        C971   1.447       .  S
C965        C976   1.447       .  S
C966        C970   1.469       .  S
C966        C972   1.466       .  S
C966        C973   1.464       .  S
C966       C1030   1.465       .  S
C967        C989   1.448       .  S
C968        C969   1.448       .  S
C969        C970   1.208       .  T
C971        C972   1.207       .  T
C973        C974   1.205       .  T
C975        C976   1.207       .  T
C977        C978   1.208       .  T
C979        C980   1.205       .  T
C981        C982   1.207       .  T
C983        C984   1.208       .  T
C985        C986   1.205       .  T
C987        C988   1.207       .  T
C989        C990   1.208       .  T
C991        C992   1.205       .  T
C993        C994   1.205       .  T
C995        C996   1.208       .  T
C997        C998   1.207       .  T
C999       C1000   1.207       .  T
C1001      C1002   1.205       .  T
C1003      C1004   1.208       .  T
C1005      C1006   1.208       .  T
C1007      C1008   1.205       .  T
C1009      C1010   1.207       .  T
C1011      C1012   1.208       .  T
C1013      C1014   1.207       .  T
C1015      C1016   1.205       .  T
C1017      C1018   1.206       .  T
C1019      C1020   1.206       .  T
C1021      C1022   1.206       .  T
C1023      C1024   1.206       .  T
C1025      C1026   1.206       .  T
C1027      C1028   1.206       .  T
C1029      C1030   1.206       .  T
C1031      C1032   1.206       .  T
