geometry optimzed in LAMMPS
_audit_creation_date              2020-12-01 
_audit_creation_method            'lammps2cif' 
_symmetry_space_group_name_H-M    'P1' 
_symmetry_Int_Tables_number       1 
_symmetry_cell_setting            triclinic 
loop_ 
_symmetry_equiv_pos_as_xyz 
  x,y,z 
_cell_length_a                    37.30534161 
_cell_length_b                    37.56305753524955 
_cell_length_c                    33.84490706777386 
_cell_angle_alpha                 89.81723319664454 
_cell_angle_beta                  90.20365876439737 
_cell_angle_gamma                 121.9749802397974 
loop_ 
_atom_site_label 
_atom_site_type_symbol 
_atom_site_fract_x 
_atom_site_fract_y 
_atom_site_fract_z 
_atom_site_charge 
C1          C  0.52423768  0.83978086  0.99983873     0.78700
N2          N  0.52247912  0.85728279  0.30016811    -0.79700
C3          C  0.50500202  0.88106546  0.29981362     0.81100
N4          N  0.49709014  0.89375245  0.33444758    -0.79600
C5          C  0.50315086  0.87966835  0.03523410     0.81200
N6          N  0.51674250  0.85259028  0.03467039    -0.81300
C7          C  0.29186231  0.85711839  0.99773881     0.78700
N8          N  0.30983106  0.87516011  0.03293131    -0.79700
C9          C  0.34584305  0.91370024  0.03436996     0.81100
N10         N  0.36705177  0.93276304  0.33488002    -0.79600
C11         C  0.34867670  0.91462525  0.29986892     0.81200
N12         N  0.31264865  0.87636898  0.29944518    -0.81300
N13         N  0.51981039  0.93728066  0.21214194    -0.07700
N14         N  0.53609767  0.92869285  0.24261948    -0.59800
N15         N  0.47766730  0.91370021  0.12121534    -0.07400
N16         N  0.46439583  0.88823269  0.09041790    -0.61900
N17         N  0.51920275  0.93718322  0.12159767    -0.07000
N18         N  0.53514173  0.92798065  0.09148883    -0.59800
N19         N  0.47826669  0.91407378  0.21304418    -0.06600
N20         N  0.46538646  0.88950958  0.24461475    -0.62300
C21         C  0.50189871  0.89892309  0.26248309     0.94500
C22         C  0.50069583  0.89737887  0.07255729     0.94300
N23         N  0.40240353  0.96517597  0.12083305    -0.07900
N24         N  0.38102953  0.96511621  0.08951231    -0.60400
N25         N  0.40501515  0.93153142  0.21234166    -0.06000
N26         N  0.38560284  0.90783087  0.24330314    -0.61600
N27         N  0.40336665  0.96565019  0.21293933    -0.07900
N28         N  0.38327564  0.96621451  0.24483821    -0.60700
N29         N  0.40383067  0.93091648  0.12167729    -0.05600
N30         N  0.38289547  0.90650692  0.09146453    -0.61700
Mn31       Mn  0.44005966  0.92095722  0.16702645     1.18400
C32         C  0.36883412  0.92813620  0.07180267     0.95700
C33         C  0.37241416  0.92986119  0.26322597     0.97200
N34         N  0.58544157  0.03444229  0.12083232    -0.07900
N35         N  0.60762439  0.03540295  0.09002866    -0.64200
N36         N  0.58426375  0.06800852  0.21216665    -0.06700
N37         N  0.60568235  0.09230791  0.24231469    -0.64900
N38         N  0.58618218  0.03402349  0.21215534    -0.07400
N39         N  0.60865396  0.03427465  0.24252722    -0.64500
N40         N  0.58358571  0.06845825  0.12167752    -0.06300
N41         N  0.60462250  0.09341253  0.09182825    -0.65200
Mn42       Mn  0.55375044  0.98543453  0.16659132     1.10700
C43         C  0.61947282  0.07249054  0.07257412     0.97800
C44         C  0.62080564  0.07095321  0.26071747     0.97900
N45         N  0.46898999  0.06181235  0.21240225    -0.07400
N46         N  0.45338083  0.07074134  0.24309281    -0.62800
N47         N  0.51030846  0.08598485  0.12162098    -0.06800
N48         N  0.52405470  0.11226419  0.09146749    -0.59500
N49         N  0.46880844  0.06205413  0.12094668    -0.08100
N50         N  0.45341488  0.07127627  0.09004117    -0.62400
N51         N  0.51050640  0.08536309  0.21245646    -0.07100
N52         N  0.52410603  0.11109395  0.24294352    -0.59600
Mn53       Mn  0.43460010  0.01389386  0.16668864     1.20200
Mn54       Mn  0.54811712  0.07834914  0.16705478     1.10100
Cl55       Cl  0.49412902  0.99963994  0.16677105    -0.87500
C56         C  0.48814908  0.10160165  0.26157633     0.94800
C57         C  0.48829555  0.10282703  0.07224692     0.94600
C58         C  0.50232389  0.18333670  0.00041087     0.78700
N59         N  0.49264716  0.15990928  0.29737786    -0.79700
C60         C  0.48739606  0.12134838  0.29822690     0.81100
N61         N  0.48498005  0.10271971  0.33329192    -0.79600
C62         C  0.48821496  0.12270537  0.03513570     0.81200
N63         N  0.49754849  0.16290479  0.03510816    -0.81300
C64         C  0.70604489  0.13592910  0.00265471     0.78700
N65         N  0.68457724  0.11914090  0.03688079    -0.79700
C66         C  0.64333127  0.08761137  0.03598662     0.81100
N67         N  0.62294051  0.06933993  0.33244296    -0.79600
C68         C  0.64404691  0.08433668  0.29789849     0.81200
N69         N  0.68568695  0.11485278  0.29817434    -0.81300
N70         N  0.94616726  0.45566401  0.21366218    -0.07700
N71         N  0.92019372  0.44289432  0.24416615    -0.59800
N72         N  0.97194661  0.49711933  0.12270657    -0.07400
N73         N  0.96334551  0.51310023  0.09205466    -0.61900
N74         N  0.94798866  0.45590652  0.12242246    -0.07000
N75         N  0.92284160  0.44282884  0.09127784    -0.59800
N76         N  0.96999517  0.49688540  0.21293705    -0.06600
N77         N  0.96047195  0.51313540  0.24247284    -0.62300
C78         C  0.92938295  0.47919096  0.26144931     0.94500
C79         C  0.93280134  0.47885755  0.07290269     0.94300
N80         N  0.10353221  0.55990840  0.12495900    -0.07900
N81         N  0.12827975  0.58040450  0.09465087    -0.60400
N82         N  0.06757820  0.56143304  0.21522041    -0.06000
N83         N  0.06737049  0.58313095  0.24571918    -0.61600
N84         N  0.10143891  0.55892136  0.21599099    -0.07900
N85         N  0.12512684  0.57896575  0.24696526    -0.60700
N86         N  0.06956206  0.56222951  0.12416918    -0.05600
N87         N  0.07033878  0.58418341  0.09331094    -0.61700
Mn88       Mn  0.01955731  0.53054296  0.16871744     1.18400
C89         C  0.10721318  0.59553438  0.07547721     0.96600
C90         C  0.10349843  0.59391502  0.26496130     0.97200
N91         N  0.96317417  0.38204266  0.12385171    -0.07900
N92         N  0.93867105  0.36218453  0.09342147    -0.64200
N93         N  0.99514979  0.37869675  0.21568794    -0.06700
N94         N  0.99371033  0.35697698  0.24717651    -0.64900
N95         N  0.96130319  0.38116002  0.21406366    -0.07400
N96         N  0.93573961  0.36061516  0.24369064    -0.64500
N97         N  0.99699284  0.37949916  0.12346161    -0.06300
N98         N  0.99650341  0.35819743  0.09212085    -0.65200
Mn99       Mn  0.95324464  0.41774243  0.16856659     1.10700
C100        C  0.95976013  0.34762670  0.07393583     0.97800
C101        C  0.95624110  0.34570298  0.26396764     0.97900
N102        N  0.11703767  0.48476587  0.21697399    -0.07400
N103        N  0.14189935  0.49774511  0.24828241    -0.62800
N104        N  0.09441312  0.44430791  0.12553936    -0.06800
N105        N  0.10241079  0.42883720  0.09417467    -0.59500
N106        N  0.11904751  0.48549239  0.12607078    -0.08100
N107        N  0.14462094  0.49890889  0.09534080    -0.62400
N108        N  0.09246274  0.44357348  0.21704160    -0.07100
N109        N  0.09979365  0.42761841  0.24862316    -0.59600
Mn110      Mn  0.11193394  0.52331224  0.17103077     1.20200
Mn111      Mn  0.04512135  0.41022209  0.17044115     1.10100
Cl112      Cl  0.03253649  0.47049090  0.16972669    -0.87500
C113        C  0.13068007  0.46182171  0.26758516     0.94800
C114        C  0.13400653  0.46323404  0.07601494     0.94600
C115        C  0.20932001  0.47157835  0.00064831     0.78700
N116        N  0.18968468  0.46773800  0.30388060    -0.79700
C117        C  0.15014265  0.46060000  0.30440777     0.81100
N118        N  0.13001901  0.45781083  0.00435000    -0.79600
C119        C  0.15184333  0.46255115  0.03805055     0.81200
N120        N  0.19145002  0.46971360  0.03618049    -0.81300
C121        C  0.88192644  0.27072066  0.00504072     0.78700
N122        N  0.90347876  0.28879468  0.03882041    -0.79700
C123        C  0.94312070  0.32326305  0.03772222     0.81100
N124        N  0.96110217  0.34068786  0.00232429    -0.79600
C125        C  0.94004668  0.32274176  0.30103083     0.81200
N126        N  0.90038757  0.28811915  0.30157811    -0.81300
C127        C  0.87058470  0.50000612  0.00308389     0.78700
N128        N  0.88830031  0.50052707  0.29854468    -0.79700
C129        C  0.91134020  0.48221518  0.29832790     0.81100
N130        N  0.92512156  0.47256528  0.00152936    -0.79600
C131        C  0.91340602  0.48085659  0.03643952     0.81200
N132        N  0.88672759  0.49499054  0.03710823    -0.81300
C133        C  0.15936776  0.68063721  0.00152734     0.78700
N134        N  0.14430839  0.65924943  0.30147744    -0.79700
C135        C  0.11670156  0.61719177  0.30185227     0.81100
N136        N  0.10466588  0.59590151  0.00359432    -0.79600
C137        C  0.12031279  0.61766348  0.03772843     0.81200
N138        N  0.14762742  0.65986910  0.03667437    -0.81300
N139        N  0.53531461  0.45913657  0.11898466    -0.07700
N140        N  0.51604205  0.43499710  0.08802852    -0.59800
N141        N  0.57578054  0.47142148  0.21045819    -0.07400
N142        N  0.58461321  0.45558546  0.24118114    -0.61900
N143        N  0.53553815  0.45905668  0.21045205    -0.07000
N144        N  0.51611201  0.43460030  0.24117102    -0.59800
N145        N  0.57553330  0.47141325  0.11922524    -0.06600
N146        N  0.58453222  0.45588428  0.08861278    -0.62300
C147        C  0.54717176  0.43321562  0.06963702     0.94500
C148        C  0.54707007  0.43258345  0.25981378     0.94300
N149        N  0.67180797  0.59804619  0.20972083    -0.07900
N150        N  0.69558529  0.61759238  0.24095057    -0.60400
N151        N  0.66095777  0.55801324  0.11907231    -0.06000
N152        N  0.67816303  0.54960713  0.08953676    -0.61600
N153        N  0.67118370  0.59732048  0.11757184    -0.07900
N154        N  0.69510714  0.61635541  0.08626424    -0.60700
N155        N  0.66134312  0.55865000  0.20923881    -0.05600
N156        N  0.67825871  0.55064094  0.23945898    -0.61700
Mn157      Mn  0.61910516  0.51423073  0.16456512     1.18400
C158        C  0.69935294  0.58748751  0.25888071     0.96600
C159        C  0.69926067  0.58606825  0.06938823     0.97200
N160        N  0.48586234  0.50510330  0.21088262    -0.07900
N161        N  0.46249588  0.48541936  0.24218394    -0.64200
N162        N  0.49589365  0.54428021  0.11930506    -0.06700
N163        N  0.48011796  0.55227793  0.08799715    -0.64900
N164        N  0.48563849  0.50494857  0.11913188    -0.07400
N165        N  0.46282503  0.48533157  0.08756373    -0.64500
N166        N  0.49632477  0.54451645  0.21059332    -0.06300
N167        N  0.48012543  0.55243305  0.24149786    -0.65200
Mn168      Mn  0.50912376  0.48063182  0.16486924     1.10700
C169        C  0.45897335  0.51527275  0.26070262     0.97800
C170        C  0.45969765  0.51527929  0.06865346     0.97900
N171        N  0.62091559  0.64287214  0.11766021    -0.07400
N172        N  0.63911511  0.66595850  0.08579446    -0.62800
N173        N  0.58182322  0.63161394  0.20940724    -0.06800
N174        N  0.57275096  0.64723421  0.23979176    -0.59500
N175        N  0.62199720  0.64370330  0.20988608    -0.08100
N176        N  0.64100804  0.66733762  0.24127849    -0.62400
N177        N  0.58087419  0.63114332  0.11906170    -0.07100
N178        N  0.57109645  0.64652193  0.08880929    -0.59600
Mn179      Mn  0.64807746  0.62215734  0.16363014     1.20200
Mn180      Mn  0.53794682  0.58856955  0.16464701     1.10100
Cl181      Cl  0.57858746  0.55141843  0.16445384    -0.87500
C182        C  0.60754676  0.66802465  0.06841972     0.94800
C183        C  0.60978182  0.66932233  0.25932725     0.94600
C184        C  0.53200585  0.35130834  0.99950134     0.78700
N185        N  0.53475855  0.37155389  0.03366350    -0.79700
C186        C  0.54184325  0.41086950  0.03281857     0.81100
N187        N  0.54677301  0.43044550  0.99774581    -0.79600
C188        C  0.54132286  0.41066351  0.29722176     0.81200
N189        N  0.53112173  0.37017902  0.29744327    -0.81300
C190        C  0.37719274  0.49729548  0.99719815     0.78700
N191        N  0.39769706  0.50170441  0.29949477    -0.79700
C192        C  0.43750883  0.50913457  0.29849812     0.81100
N193        N  0.45714030  0.51242993  0.99667446    -0.79600
C194        C  0.43755320  0.50887023  0.03139910     0.81200
N195        N  0.39802809  0.50167580  0.03151504    -0.81300
C196        C  0.76486670  0.57100937  0.99929964     0.78700
N197        N  0.74948680  0.57650050  0.03349492    -0.79700
C198        C  0.72239123  0.59026951  0.03315175     0.81100
N199        N  0.70928823  0.59730720  0.99807927    -0.79600
C200        C  0.72227575  0.59236789  0.29535104     0.81200
N201        N  0.75148479  0.58138050  0.29512000    -0.81300
C202        C  0.59009077  0.72993006  0.99585100     0.78700
N203        N  0.59555083  0.71530567  0.03058579    -0.79700
C204        C  0.61070004  0.68955173  0.03149774     0.81100
N205        N  0.61938523  0.67701674  0.99714455    -0.79600
C206        C  0.61379427  0.69117828  0.29621600     0.81200
N207        N  0.60216054  0.71978980  0.29649859    -0.81300
C208        C  0.83005740  0.52775656  0.29748121    -0.27900
C209        C  0.84259936  0.51713025  0.00329330    -0.16000
C210        C  0.82301099  0.52024894  0.03790963     0.34700
C211        C  0.79851875  0.53827489  0.03574358    -0.27300
C212        C  0.79214867  0.55308823  0.99985538    -0.16600
C213        C  0.80375059  0.54380525  0.29517400     0.35800
N214        N  0.78338620  0.54120664  0.25838163    -0.90800
H215        H  0.83409927  0.51398389  0.27110540     0.16900
H216        H  0.78397344  0.54020230  0.06263744     0.16900
N217        N  0.82630106  0.50477874  0.07563272    -0.89900
H218        H  0.76514718  0.50964347  0.25010599     0.34200
H219        H  0.80675467  0.55727296  0.23697635     0.39300
H220        H  0.85767847  0.52208713  0.08520826     0.39000
H221        H  0.81615978  0.47306652  0.07295730     0.33800
C222        C  0.26941750  0.47220628  0.03309199    -0.27900
C223        C  0.25226293  0.47834009  0.99872701    -0.16000
C224        C  0.28044799  0.49751113  0.30425381     0.34700
C225        C  0.32054070  0.50275884  0.30393664    -0.27300
C226        C  0.33376755  0.48969028  0.99809194    -0.16600
C227        C  0.30951432  0.47766063  0.03320238     0.35800
N228        N  0.32496762  0.47037942  0.06921599    -0.90800
H229        H  0.25150732  0.46266769  0.06034144     0.16900
H230        H  0.34083845  0.51790038  0.27865679     0.16900
N231        N  0.26791330  0.51283341  0.27154641    -0.89900
H232        H  0.30365927  0.43961512  0.07834635     0.34200
H233        H  0.32571026  0.49069494  0.09079984     0.39300
H234        H  0.26898400  0.49794336  0.24593413     0.39000
H235        H  0.28995033  0.54500075  0.26859692     0.33800
C236        C  0.76783160  0.19605736  0.03658016    -0.27900
C237        C  0.75144086  0.16946334  0.00359988    -0.16000
C238        C  0.77849651  0.17510273  0.30037484     0.34700
C239        C  0.82028753  0.20943146  0.30211311    -0.27300
C240        C  0.83752207  0.23500225  0.00626110    -0.16600
C241        C  0.81037063  0.22886830  0.03806915     0.35800
N242        N  0.82523262  0.25674697  0.07124588    -0.90800
H243        H  0.74730573  0.19214597  0.06098124     0.16900
H244        H  0.83995028  0.21705113  0.27612954     0.16900
N245        N  0.76354386  0.15096627  0.26477634    -0.89900
H246        H  0.82016839  0.23897969  0.09678338     0.34200
H247        H  0.80707505  0.27038867  0.07329634     0.39300
H248        H  0.78298353  0.13941103  0.25854857     0.39000
H249        H  0.76665529  0.17103332  0.24175827     0.33800
C250        C  0.49674346  0.24011549  0.03154166    -0.27900
C251        C  0.51156429  0.22691909  0.00026482    -0.16000
C252        C  0.51019035  0.24651639  0.29525713     0.34700
C253        C  0.53967040  0.29531004  0.96925400    -0.27300
C254        C  0.52452900  0.30836107  0.00041046    -0.16600
C255        C  0.50272513  0.28024228  0.03178266     0.35800
N256        N  0.48530773  0.29164222  0.06338289    -0.90800
H257        H  0.47933479  0.21876893  0.05557698     0.16900
H258        H  0.52510619  0.30484625  0.26918775     0.16900
N259        N  0.51241762  0.22986354  0.25795730    -0.89900
H260        H  0.52258337  0.29693931  0.42420682     0.34200
H261        H  0.47070037  0.27667016  0.41471253     0.39300
H262        H  0.57435154  0.23916608  0.94918248     0.39000
H263        H  0.56584198  0.26744540  0.91637415     0.33800
C264        C  0.21209340  0.74489003  0.29976103    -0.27900
C265        C  0.19041121  0.72671543  0.00003203    -0.16000
C266        C  0.19791370  0.75322512  0.03263043     0.34700
C267        C  0.22992341  0.79590527  0.03064498    -0.27300
C268        C  0.25488659  0.81315598  0.99662123    -0.16600
C269        C  0.24510193  0.78705686  0.29786611     0.35800
N270        N  0.26735516  0.80359505  0.26121425    -0.90800
H271        H  0.20464639  0.72565575  0.27360359     0.16900
H272        H  0.23565228  0.81547058  0.05626973     0.16900
N273        N  0.17308091  0.73718526  0.06781795    -0.89900
H274        H  0.25283913  0.78181263  0.23840933     0.34200
H275        H  0.29743121  0.80825265  0.26474200     0.39300
H276        H  0.15846763  0.75404165  0.07282821     0.39000
H277        H  0.19348310  0.74275883  0.09149210     0.33800
C278        C  0.55744520  0.80567561  0.29828629    -0.27900
C279        C  0.53942633  0.81025783  0.99899227    -0.16000
C280        C  0.53893017  0.78790912  0.03286889     0.34700
C281        C  0.55533870  0.76197095  0.03088424    -0.27300
C282        C  0.57213063  0.75710799  0.99563745    -0.16600
C283        C  0.57359575  0.77949782  0.29616585     0.35800
N284        N  0.58046663  0.76767181  0.25807002    -0.90800
H285        H  0.55043560  0.81570957  0.27084756     0.16900
H286        H  0.55469533  0.74544385  0.05742356     0.16900
N287        N  0.52148586  0.79090567  0.06943948    -0.89900
H288        H  0.60154315  0.79501737  0.24254534     0.34200
H289        H  0.55170501  0.75241663  0.24280627     0.39300
H290        H  0.54501922  0.80169002  0.09109906     0.39000
H291        H  0.49700087  0.76078605  0.07748619     0.33800
C292        C  0.53128941  0.84508128  0.33485472     0.78700
N293        N  0.52753081  0.86084893  0.63459703    -0.79700
C294        C  0.50984618  0.88447361  0.63442576     0.81100
N295        N  0.50094878  0.89614876  0.66912058    -0.79600
C296        C  0.50625062  0.88215664  0.36922811     0.81200
N297        N  0.52367395  0.85836259  0.36926241    -0.81300
C298        C  0.29403366  0.85586263  0.33341197     0.78700
N299        N  0.31272710  0.87395369  0.36836783    -0.79700
C300        C  0.34863869  0.91261218  0.36924982     0.81100
N301        N  0.36579383  0.93294141  0.66736132    -0.79600
C302        C  0.34869669  0.91277247  0.63269595     0.81200
N303        N  0.31515250  0.87266010  0.63310579    -0.81300
N304        N  0.52386870  0.94077267  0.54691718    -0.07700
N305        N  0.54051916  0.93252090  0.57734068    -0.59800
N306        N  0.48120374  0.91586055  0.45582619    -0.07400
N307        N  0.46777531  0.89105026  0.42455223    -0.61900
N308        N  0.52271489  0.93933527  0.45612157    -0.07000
N309        N  0.53851825  0.93071990  0.42546994    -0.59800
N310        N  0.48236777  0.91718687  0.54793571    -0.06600
N311        N  0.46984293  0.89269597  0.57953937    -0.62300
C312        C  0.50653315  0.90252625  0.59729509     0.94500
C313        C  0.50395766  0.90065493  0.40618503     0.94300
N314        N  0.40499102  0.96569850  0.45503041    -0.07900
N315        N  0.38347074  0.96492445  0.42355826    -0.60400
N316        N  0.40791112  0.93283400  0.54650674    -0.06000
N317        N  0.38727081  0.90804472  0.57649676    -0.61600
N318        N  0.40568876  0.96663006  0.54717099    -0.07900
N319        N  0.38394269  0.96584322  0.57838794    -0.60700
N320        N  0.40701590  0.93178813  0.45633336    -0.05600
N321        N  0.38637182  0.90688889  0.42635442    -0.61700
Mn322      Mn  0.44364451  0.92292736  0.50168144     1.18400
C323        C  0.37185979  0.92787127  0.40633480     0.95700
C324        C  0.37255602  0.92890003  0.59605154     0.97200
N325        N  0.58786508  0.03591568  0.45416015    -0.07900
N326        N  0.60918754  0.03541800  0.42333358    -0.64200
N327        N  0.58667254  0.07139981  0.54460976    -0.06700
N328        N  0.60640940  0.09549946  0.57537512    -0.64900
N329        N  0.58884472  0.03756951  0.54546418    -0.07400
N330        N  0.60993345  0.03777625  0.57694366    -0.64500
N331        N  0.58564135  0.06973032  0.45360854    -0.06300
N332        N  0.60566703  0.09315502  0.42255234    -0.65200
Mn333      Mn  0.55701083  0.98817629  0.50068809     1.10700
C334        C  0.62014075  0.07135073  0.40416149     0.97800
C335        C  0.62070812  0.07410284  0.59504187     0.97900
N336        N  0.47148542  0.06360935  0.54540008    -0.07400
N337        N  0.45636981  0.07226511  0.57667168    -0.62800
N338        N  0.51179411  0.08702254  0.45365855    -0.06800
N339        N  0.52484863  0.11317888  0.42339307    -0.59500
N340        N  0.47028276  0.06304232  0.45387948    -0.08100
N341        N  0.45421750  0.07218134  0.42345366    -0.62400
N342        N  0.51293976  0.08795060  0.54432420    -0.07100
N343        N  0.52695128  0.11400867  0.57453063    -0.59600
Mn344      Mn  0.43679545  0.01501358  0.50037295     1.20200
Mn345      Mn  0.55034600  0.08054742  0.49892776     1.10100
Cl346      Cl  0.49692053  0.00168864  0.50038835    -0.87500
C347        C  0.49137662  0.10382927  0.59425205     0.94800
C348        C  0.48863986  0.10375648  0.40507735     0.94600
C349        C  0.49506449  0.18012562  0.33144144     0.78700
N350        N  0.50133811  0.16424492  0.63013256    -0.79700
C351        C  0.49146992  0.12398167  0.63088198     0.81100
N352        N  0.48647912  0.10430715  0.66592836    -0.79600
C353        C  0.48754125  0.12253194  0.36754066     0.81200
N354        N  0.49292127  0.16125995  0.36659978    -0.81300
C355        C  0.70673610  0.12994849  0.33295033     0.78700
N356        N  0.68515659  0.11495825  0.36741289    -0.79700
C357        C  0.64355184  0.08458495  0.36721121     0.81100
N358        N  0.62239984  0.07352657  0.66695424    -0.79600
C359        C  0.64347809  0.08782258  0.63231908     0.81200
N360        N  0.68556711  0.11630508  0.63235885    -0.81300
N361        N  0.94238383  0.45619176  0.54652914    -0.07700
N362        N  0.91770469  0.44375170  0.57801950    -0.59800
N363        N  0.96822099  0.49740400  0.45524891    -0.07400
N364        N  0.96058119  0.51368407  0.42424067    -0.61900
N365        N  0.94412575  0.45619769  0.45467769    -0.07000
N366        N  0.91987212  0.44345233  0.42284518    -0.59800
N367        N  0.96645937  0.49738106  0.54557310    -0.06600
N368        N  0.95832267  0.51394759  0.57577532    -0.62300
C369        C  0.92801936  0.48027378  0.59562327     0.94500
C370        C  0.93051694  0.47972707  0.40445522     0.94300
N371        N  0.09918658  0.55900759  0.45718520    -0.07900
N372        N  0.12404385  0.57957921  0.42704432    -0.60400
N373        N  0.06411906  0.56142105  0.54780688    -0.06000
N374        N  0.06419104  0.58264529  0.57890608    -0.61600
N375        N  0.09799967  0.55893473  0.54786448    -0.07900
N376        N  0.12201096  0.57860560  0.57872962    -0.60700
N377        N  0.06555332  0.56190195  0.45669515    -0.05600
N378        N  0.06663060  0.58433029  0.42614031    -0.61700
Mn379      Mn  0.01579472  0.53066766  0.50132405     1.18400
C380        C  0.10337356  0.59530798  0.40828680     0.96600
C381        C  0.10062595  0.59327219  0.59758377     0.97200
N382        N  0.95894195  0.38194704  0.45685329    -0.07900
N383        N  0.93475487  0.36217449  0.42618782    -0.64200
N384        N  0.99126699  0.37960600  0.54877137    -0.06700
N385        N  0.99041112  0.35839152  0.58033395    -0.64900
N386        N  0.95721715  0.38173795  0.54727377    -0.07400
N387        N  0.93207973  0.36146174  0.57730130    -0.64500
N388        N  0.99282402  0.37947756  0.45676966    -0.06300
N389        N  0.99271374  0.35838640  0.42545557    -0.65200
Mn390      Mn  0.94900612  0.41795400  0.50133725     1.10700
C391        C  0.95615109  0.34777417  0.40694974     0.97800
C392        C  0.95321712  0.34713246  0.59749963     0.97900
N393        N  0.11367024  0.48511443  0.54936794    -0.07400
N394        N  0.13969028  0.49852190  0.57985669    -0.62800
N395        N  0.09048494  0.44335427  0.45874433    -0.06800
N396        N  0.09976949  0.42725070  0.42874813    -0.59500
N397        N  0.11507169  0.48452669  0.45874852    -0.08100
N398        N  0.14192342  0.49734348  0.42904015    -0.62400
N399        N  0.08887877  0.44396554  0.55009935    -0.07100
N400        N  0.09724660  0.42845421  0.58140360    -0.59600
Mn401      Mn  0.10795910  0.52289095  0.50316391     1.20200
Mn402      Mn  0.04106213  0.41029358  0.50363838     1.10100
Cl403      Cl  0.02846528  0.47044356  0.50232983    -0.87500
C404        C  0.12904034  0.46289389  0.59942452     0.94800
C405        C  0.13218433  0.46131118  0.41091029     0.94600
C406        C  0.21021607  0.47081992  0.33807336     0.78700
N407        N  0.18897260  0.46892532  0.63473676    -0.79700
C408        C  0.14950765  0.46216590  0.63589366     0.81100
N409        N  0.13085387  0.45699995  0.33932357    -0.79600
C410        C  0.15110570  0.46020367  0.37371470     0.81200
N411        N  0.19082788  0.46737613  0.37312037    -0.81300
C412        C  0.88081770  0.27054130  0.33634303     0.78700
N413        N  0.90087628  0.28911820  0.37057955    -0.79700
C414        C  0.94037802  0.32376045  0.37047991     0.81100
N415        N  0.95993596  0.34091325  0.33559235    -0.79600
C416        C  0.93795052  0.32373858  0.63433080     0.81200
N417        N  0.89996264  0.28713014  0.63485047    -0.81300
C418        C  0.87633498  0.50933160  0.33320956     0.78700
N419        N  0.89258151  0.50701472  0.63337969    -0.79700
C420        C  0.91105468  0.48424558  0.63282129     0.81100
N421        N  0.92360825  0.47353584  0.33290807    -0.79600
C422        C  0.91225362  0.48271458  0.36757407     0.81200
N423        N  0.88909322  0.50082350  0.36757155    -0.81300
C424        C  0.15824312  0.68109045  0.33587795     0.78700
N425        N  0.14640333  0.65655341  0.63545671    -0.79700
C426        C  0.11451646  0.61568451  0.63496037     0.81100
N427        N  0.10306356  0.59648449  0.33666129    -0.79600
C428        C  0.11705125  0.61791970  0.37107068     0.81200
N429        N  0.14474016  0.66001920  0.37071635    -0.81300
N430        N  0.53841230  0.45978518  0.45388440    -0.07700
N431        N  0.51832953  0.43542436  0.42326942    -0.59800
N432        N  0.58024478  0.47280458  0.54449595    -0.07400
N433        N  0.58936402  0.45679220  0.57482495    -0.61900
N434        N  0.54013372  0.46089563  0.54521802    -0.07000
N435        N  0.52110172  0.43676080  0.57617555    -0.59800
N436        N  0.57861864  0.47200133  0.45324683    -0.06600
N437        N  0.58674537  0.45618739  0.42218905    -0.62300
C438        C  0.54883789  0.43335813  0.40398223     0.94500
C439        C  0.55216126  0.43437797  0.59405540     0.94300
N440        N  0.67606842  0.59974327  0.54318694    -0.07900
N441        N  0.69946792  0.61965476  0.57447064    -0.60400
N442        N  0.66416443  0.55905211  0.45250341    -0.06000
N443        N  0.68035256  0.55052720  0.42215791    -0.61600
N444        N  0.67420573  0.59830944  0.45116304    -0.07900
N445        N  0.69694694  0.61718763  0.41927035    -0.60700
N446        N  0.66577202  0.56037249  0.54313386    -0.05600
N447        N  0.68242424  0.55279551  0.57395951    -0.61700
Mn448      Mn  0.62304219  0.51537429  0.49838882     1.18400
C449        C  0.70317804  0.58990203  0.59312864     0.96600
C450        C  0.70060457  0.58691351  0.40179862     0.97200
N451        N  0.49002508  0.50659852  0.54586085    -0.07900
N452        N  0.46502234  0.48641526  0.57611448    -0.64200
N453        N  0.49950239  0.54530581  0.45454108    -0.06700
N454        N  0.48305440  0.55300395  0.42358577    -0.64900
N455        N  0.48906783  0.50591490  0.45456666    -0.07400
N456        N  0.46540650  0.48593968  0.42352678    -0.64500
N457        N  0.50051832  0.54602350  0.54554336    -0.06300
N458        N  0.48269738  0.55345103  0.57540875    -0.65200
Mn459      Mn  0.51309167  0.48194274  0.49997358     1.10700
C460        C  0.46046114  0.51594696  0.59391643     0.97800
C461        C  0.46198755  0.51575453  0.40470322     0.97900
N462        N  0.62446714  0.64413717  0.45162356    -0.07400
N463        N  0.64245649  0.66730575  0.41975098    -0.62800
N464        N  0.58645805  0.63354309  0.54381907    -0.06800
N465        N  0.57790588  0.64989953  0.57396820    -0.59500
N466        N  0.62666429  0.64575196  0.54382923    -0.08100
N467        N  0.64622281  0.67021806  0.57465099    -0.62400
N468        N  0.58443105  0.63234715  0.45330386    -0.07100
N469        N  0.57442468  0.64771901  0.42317285    -0.59600
Mn470      Mn  0.65193619  0.62354399  0.49736192     1.20200
Mn471      Mn  0.54203726  0.58997294  0.49942575     1.10100
Cl472      Cl  0.58256576  0.55270501  0.49890655    -0.87500
C473        C  0.61076675  0.66934829  0.40260741     0.94800
C474        C  0.61529873  0.67265219  0.59283628     0.94600
C475        C  0.52622698  0.34972324  0.33221136     0.78700
N476        N  0.53207165  0.37067161  0.36671538    -0.79700
C477        C  0.54218392  0.41109411  0.36664490     0.81100
N478        N  0.54684725  0.43108914  0.33184283    -0.79600
C479        C  0.54686231  0.41231478  0.63103424     0.81200
N480        N  0.54238959  0.37408580  0.63087708    -0.81300
C481        C  0.37818207  0.49734017  0.33470509     0.78700
N482        N  0.39771781  0.50175693  0.63088023    -0.79700
C483        C  0.43762343  0.50928534  0.63090691     0.81100
N484        N  0.45821908  0.51290064  0.33276626    -0.79600
C485        C  0.43905833  0.50904152  0.36788107     0.81200
N486        N  0.39937016  0.50155538  0.36876468    -0.81300
C487        C  0.76699028  0.57596888  0.32932044     0.78700
N488        N  0.75162147  0.58021921  0.36407631    -0.79700
C489        C  0.72246480  0.59131679  0.36477250     0.81100
N490        N  0.70732006  0.59692801  0.33028390    -0.79600
C491        C  0.72601434  0.59582995  0.62998792     0.81200
N492        N  0.75869094  0.58980136  0.62986575    -0.81300
C493        C  0.59719631  0.73501144  0.33096439     0.78700
N494        N  0.60223169  0.71961267  0.36548214    -0.79700
C495        C  0.61383762  0.69095224  0.36567537     0.81100
N496        N  0.61929128  0.67639041  0.33093261    -0.79600
C497        C  0.61969522  0.69479758  0.62973583     0.81200
N498        N  0.60865583  0.72392360  0.63005139    -0.81300
C499        C  0.84310455  0.54367393  0.63136651    -0.27900
C500        C  0.84998688  0.52830718  0.33301167    -0.16000
C501        C  0.84379966  0.54673480  0.36685712     0.34700
C502        C  0.81770288  0.56292132  0.36436348    -0.27300
C503        C  0.79692482  0.56125232  0.32910757    -0.16600
C504        C  0.81779054  0.56079151  0.62895894     0.35800
N505        N  0.80076470  0.56197148  0.59129857    -0.90800
H506        H  0.84800100  0.53112956  0.60456281     0.16900
H507        H  0.81339981  0.57662686  0.39066093     0.16900
N508        N  0.86350851  0.55002097  0.40421073    -0.89900
H509        H  0.78285636  0.53136625  0.58044071     0.34200
H510        H  0.82598366  0.57959210  0.57190521     0.39300
H511        H  0.89626345  0.56620953  0.40036469     0.39000
H512        H  0.85235099  0.51995747  0.41532444     0.33800
C513        C  0.26783584  0.46542683  0.36913544    -0.27900
C514        C  0.25345634  0.47830953  0.33703948    -0.16000
C515        C  0.28141539  0.50145092  0.63702947     0.34700
C516        C  0.32149920  0.50647051  0.63654786    -0.27300
C517        C  0.33492890  0.48984107  0.33597996    -0.16600
C518        C  0.30803873  0.47083992  0.36888115     0.35800
N519        N  0.32084884  0.45603235  0.40179353    -0.90800
H520        H  0.24751906  0.45034273  0.39441898     0.16900
H521        H  0.34357626  0.52540747  0.61347937     0.16900
N522        N  0.27092620  0.52183195  0.60743961    -0.89900
H523        H  0.29894561  0.42389835  0.40508581     0.34200
H524        H  0.31979238  0.47119405  0.42723694     0.39300
H525        H  0.27353814  0.51111043  0.57978386     0.39000
H526        H  0.29319117  0.55407839  0.60886702     0.33800
C527        C  0.76875827  0.18801328  0.36846193    -0.27900
C528        C  0.75197665  0.16445686  0.33368461    -0.16000
C529        C  0.77681957  0.17886447  0.63175906     0.34700
C530        C  0.81925236  0.21149176  0.63358978    -0.27300
C531        C  0.83678056  0.23354910  0.33662242    -0.16600
C532        C  0.81049233  0.22229266  0.37024506     0.35800
N533        N  0.82534086  0.24607421  0.40607336    -0.90800
H534        H  0.74912916  0.18059038  0.39444244     0.16900
H535        H  0.83614762  0.22396535  0.60605848     0.16900
N536        N  0.75793571  0.16312995  0.59381349    -0.89900
H537        H  0.82243478  0.22584510  0.42884899     0.34200
H538        H  0.80576201  0.25738710  0.41263873     0.39300
H539        H  0.77505432  0.15223459  0.57942454     0.39000
H540        H  0.76065212  0.18803559  0.57731106     0.33800
C541        C  0.49859362  0.24065781  0.36598708    -0.27900
C542        C  0.50126619  0.22284975  0.33051564    -0.16000
C543        C  0.50345878  0.24437746  0.63141190     0.34700
C544        C  0.51755759  0.28725651  0.29653807    -0.27300
C545        C  0.51604173  0.30548259  0.33224365    -0.16600
C546        C  0.50549902  0.28118438  0.36718288     0.35800
N547        N  0.50130701  0.29709527  0.40413837    -0.90800
H548        H  0.49098293  0.22306735  0.39333803     0.16900
H549        H  0.50168420  0.29650153  0.60811211     0.16900
N550        N  0.48115885  0.21834852  0.59816946    -0.89900
H551        H  0.59892217  0.34805327  0.71770396     0.34200
H552        H  0.57734176  0.30779922  0.74964353     0.39300
H553        H  0.54246403  0.24993313  0.24608777     0.39000
H554        H  0.49022901  0.22982697  0.23894020     0.33800
C555        C  0.20594967  0.74523141  0.63550502    -0.27900
C556        C  0.18998340  0.72689701  0.33498411    -0.16000
C557        C  0.19961858  0.75274869  0.36849905     0.34700
C558        C  0.23298525  0.79481151  0.36698025    -0.27300
C559        C  0.25669069  0.81224053  0.33233432    -0.16600
C560        C  0.23790385  0.78779428  0.63391653     0.35800
N561        N  0.24515441  0.81018532  0.59753481    -0.90800
H562        H  0.18783430  0.73059471  0.60892355     0.16900
H563        H  0.24041708  0.81385247  0.39330073     0.16900
N564        N  0.17545283  0.73677820  0.40406404    -0.89900
H565        H  0.21708731  0.80812166  0.58926927     0.34200
H566        H  0.25251527  0.79529426  0.57584332     0.39300
H567        H  0.16242916  0.75485094  0.41048420     0.39000
H568        H  0.19602337  0.74071992  0.42703589     0.33800
C569        C  0.56527036  0.81133874  0.63240433    -0.27900
C570        C  0.55000348  0.81847459  0.33471474    -0.16000
C571        C  0.56024777  0.80516316  0.36982570     0.34700
C572        C  0.57617249  0.77874834  0.36771416    -0.27300
C573        C  0.58255346  0.76506201  0.33126378    -0.16600
C574        C  0.58207426  0.78562213  0.63017704     0.35800
N575        N  0.59231568  0.77671953  0.59219261    -0.90800
H576        H  0.56039025  0.82331944  0.60508832     0.16900
H577        H  0.58320126  0.76868326  0.39512755     0.16900
N578        N  0.55453231  0.81803475  0.40787292    -0.89900
H579        H  0.61432908  0.80519992  0.57879308     0.34200
H580        H  0.56489108  0.76234726  0.57490987     0.39300
H581        H  0.58376851  0.83370399  0.42234979     0.39000
H582        H  0.53397220  0.79114088  0.42419561     0.33800
C583        C  0.53565794  0.84787413  0.66920147     0.78700
N584        N  0.51957135  0.85589165  0.96556539    -0.79700
C585        C  0.50622806  0.88315889  0.96605466     0.81100
N586        N  0.49810247  0.89513278  0.00088886    -0.79600
C587        C  0.50946277  0.88395073  0.70386568     0.81200
N588        N  0.52719905  0.86036103  0.70376251    -0.81300
C589        C  0.29733117  0.85280470  0.66763401     0.78700
N590        N  0.31502049  0.87301437  0.70206908    -0.79700
C591        C  0.34862505  0.91309368  0.70215390     0.81100
N592        N  0.36492914  0.93400486  0.00021802    -0.79600
C593        C  0.34737340  0.91609700  0.96484823     0.81200
N594        N  0.31135552  0.87763284  0.96390047    -0.81300
N595        N  0.52332530  0.94274094  0.88050945    -0.07700
N596        N  0.53916885  0.93340774  0.91084604    -0.59800
N597        N  0.48229084  0.91830083  0.78899987    -0.07400
N598        N  0.46962447  0.89281343  0.75818531    -0.61900
N599        N  0.52381041  0.94185773  0.78998736    -0.07000
N600        N  0.54030663  0.93260976  0.76034390    -0.59800
N601        N  0.48181111  0.91913145  0.88057147    -0.06600
N602        N  0.46840577  0.89347092  0.91122681    -0.62300
C603        C  0.50454577  0.90267384  0.92952043     0.94500
C604        C  0.50624605  0.90197106  0.74092836     0.94300
N605        N  0.40567383  0.96815566  0.78710539    -0.07900
N606        N  0.38391770  0.96689650  0.75557524    -0.60400
N607        N  0.40761282  0.93522724  0.87916352    -0.06000
N608        N  0.38704249  0.91089636  0.90950402    -0.61600
N609        N  0.40524783  0.96895421  0.87929768    -0.07900
N610        N  0.38346009  0.96856325  0.91029636    -0.60700
N611        N  0.40780458  0.93432593  0.78879470    -0.05600
N612        N  0.38704417  0.90901599  0.75916391    -0.61700
Mn613      Mn  0.44389029  0.92533062  0.83437107     1.18400
C614        C  0.37237926  0.92961939  0.73880438     0.95700
C615        C  0.37226718  0.93201751  0.92861643     0.97200
N616        N  0.58877856  0.03893638  0.78882142    -0.07900
N617        N  0.61003347  0.03861432  0.75785411    -0.64200
N618        N  0.58666470  0.07372993  0.87928557    -0.06700
N619        N  0.60706351  0.09821992  0.90965392    -0.64900
N620        N  0.58869678  0.03982350  0.88020845    -0.07400
N621        N  0.61021035  0.04029739  0.91147242    -0.64500
N622        N  0.58645982  0.07270076  0.78844793    -0.06300
N623        N  0.60623740  0.09619690  0.75736395    -0.65200
Mn624      Mn  0.55734778  0.99066837  0.83494649     1.10700
C625        C  0.62078881  0.07457335  0.73880279     0.97800
C626        C  0.62162662  0.07699267  0.92921480     0.97900
N627        N  0.47086590  0.06550112  0.87856056    -0.07400
N628        N  0.45512492  0.07327385  0.90994155    -0.62800
N629        N  0.51286498  0.08966169  0.78769542    -0.06800
N630        N  0.52674616  0.11567251  0.75736709    -0.59500
N631        N  0.47139825  0.06540471  0.78678691    -0.08100
N632        N  0.45616534  0.07410819  0.75540813    -0.62400
N633        N  0.51235417  0.08971723  0.87840626    -0.07100
N634        N  0.52574166  0.11482422  0.90933786    -0.59600
Mn635      Mn  0.43698014  0.01732549  0.83281187     1.20200
Mn636      Mn  0.55060979  0.08297271  0.83344672     1.10100
Cl637      Cl  0.49718338  0.00406296  0.83385365    -0.87500
C638        C  0.48976335  0.10418871  0.92856758     0.94800
C639        C  0.49110703  0.10570629  0.73770356     0.94600
C640        C  0.50552644  0.18496302  0.66427877     0.78700
N641        N  0.49845437  0.16336134  0.96584714    -0.79700
C642        C  0.48910851  0.12327070  0.96572838     0.81100
N643        N  0.48415829  0.10294259  0.00039322    -0.79600
C644        C  0.49128534  0.12499094  0.70021287     0.81200
N645        N  0.50131893  0.16538333  0.69935920    -0.81300
C646        C  0.70723198  0.13048467  0.66686379     0.78700
N647        N  0.68583149  0.11624553  0.70151082    -0.79700
C648        C  0.64366737  0.08774135  0.70158652     0.81100
N649        N  0.62307003  0.07339367  0.00090909    -0.79600
C650        C  0.64406363  0.09061953  0.96673097     0.81200
N651        N  0.68530215  0.12196358  0.96763582    -0.81300
N652        N  0.94224153  0.45329565  0.88011971    -0.07700
N653        N  0.91703477  0.43992341  0.91118442    -0.59800
N654        N  0.96781071  0.49604047  0.78989069    -0.07400
N655        N  0.96003590  0.51325419  0.75975340    -0.61900
N656        N  0.94403163  0.45484494  0.78809471    -0.07000
N657        N  0.91989851  0.44313740  0.75608643    -0.59800
N658        N  0.96649409  0.49449393  0.88035875    -0.06600
N659        N  0.95808666  0.51014169  0.91119025    -0.62300
C660        C  0.92719137  0.47581813  0.92988781     0.94500
C661        C  0.93022371  0.48004690  0.73901642     0.94300
N662        N  0.09865060  0.55723639  0.79124495    -0.07900
N663        N  0.12270321  0.57675821  0.76039244    -0.60400
N664        N  0.06431419  0.55950719  0.88239896    -0.06000
N665        N  0.06506867  0.58157138  0.91311513    -0.61600
N666        N  0.09809864  0.55687060  0.88230553    -0.07900
N667        N  0.12257695  0.57705130  0.91285153    -0.60700
N668        N  0.06484152  0.55982771  0.79087033    -0.05600
N669        N  0.06488209  0.58083004  0.75952339    -0.61700
Mn670      Mn  0.01559589  0.52861033  0.83600710     1.18400
C671        C  0.10118851  0.59121564  0.74109158     0.96600
C672        C  0.10166533  0.59234845  0.93161486     0.97200
N673        N  0.95920402  0.38020748  0.78965266    -0.07900
N674        N  0.93475965  0.36007232  0.75925771    -0.64200
N675        N  0.99183786  0.37718131  0.88138639    -0.06700
N676        N  0.99153517  0.35651490  0.91323453    -0.64900
N677        N  0.95770825  0.37920713  0.88007997    -0.07400
N678        N  0.93309015  0.35935650  0.91052740    -0.64500
N679        N  0.99305299  0.37768369  0.78953063    -0.06300
N680        N  0.99269503  0.35619676  0.75849132    -0.65200
Mn681      Mn  0.94911935  0.41580530  0.83436254     1.10700
C682        C  0.95598838  0.34537154  0.74024388     0.97800
C683        C  0.95454368  0.34541105  0.93081603     0.97900
N684        N  0.11325330  0.48291183  0.88221272    -0.07400
N685        N  0.13826017  0.49621565  0.91333355    -0.62800
N686        N  0.09071341  0.44222893  0.79105555    -0.06800
N687        N  0.10000768  0.42671441  0.76054060    -0.59500
N688        N  0.11514162  0.48341843  0.79157806    -0.08100
N689        N  0.14185117  0.49679996  0.76170097    -0.62400
N690        N  0.08886651  0.44173714  0.88242339    -0.07100
N691        N  0.09653648  0.42602407  0.91397407    -0.59600
Mn692      Mn  0.10780197  0.52112462  0.83676263     1.20200
Mn693      Mn  0.04137805  0.40840626  0.83605394     1.10100
Cl694      Cl  0.02845007  0.46845496  0.83574621    -0.87500
C695        C  0.12733038  0.46048605  0.93272479     0.94800
C696        C  0.13225698  0.46112328  0.74290708     0.94600
C697        C  0.20953597  0.47104030  0.66870170     0.78700
N698        N  0.18731013  0.46701751  0.96713564    -0.79700
C699        C  0.14780723  0.45988509  0.96891053     0.81100
N700        N  0.13060274  0.45824358  0.67113344    -0.79600
C701        C  0.15098649  0.46070403  0.70523300     0.81200
N702        N  0.19043189  0.46719030  0.70402978    -0.81300
C703        C  0.88244441  0.26720167  0.66950499     0.78700
N704        N  0.90275611  0.28549243  0.70373328    -0.79700
C705        C  0.94069182  0.32209211  0.70353903     0.81100
N706        N  0.95821936  0.34151589  0.66876734    -0.79600
C707        C  0.93959691  0.32284533  0.96826488     0.81200
N708        N  0.89997857  0.28837120  0.96984725    -0.81300
C709        C  0.88312734  0.51826189  0.66800592     0.78700
N710        N  0.88284527  0.49203222  0.96816188    -0.79700
C711        C  0.90957128  0.47794445  0.96733839     0.81100
N712        N  0.92141171  0.47329176  0.66731232    -0.79600
C713        C  0.91258017  0.48476692  0.70219818     0.81200
N714        N  0.89397162  0.50755390  0.70233835    -0.81300
C715        C  0.16256692  0.67683537  0.67030515     0.78700
N716        N  0.14387916  0.65841979  0.96741482    -0.79700
C717        C  0.11638632  0.61624490  0.96840162     0.81100
N718        N  0.09904297  0.59449293  0.66938786    -0.79600
C719        C  0.11526496  0.61442897  0.70421051     0.81200
N720        N  0.14696013  0.65529846  0.70460404    -0.81300
N721        N  0.53899258  0.45961914  0.78615255    -0.07700
N722        N  0.51943727  0.43509599  0.75553214    -0.59800
N723        N  0.57941012  0.47162692  0.87707264    -0.07400
N724        N  0.58795311  0.45513480  0.90744150    -0.61900
N725        N  0.53926595  0.45967713  0.87719171    -0.07000
N726        N  0.51966820  0.43496889  0.90769247    -0.59800
N727        N  0.57917682  0.47174224  0.78634209    -0.06600
N728        N  0.58782594  0.45554275  0.75607903    -0.62300
C729        C  0.55029907  0.43270295  0.73741875     0.94500
C730        C  0.55034295  0.43221409  0.92597021     0.94300
N731        N  0.67509966  0.59819863  0.87750105    -0.07900
N732        N  0.69841761  0.61741552  0.90906744    -0.60400
N733        N  0.66510552  0.55903498  0.78605461    -0.06000
N734        N  0.68218138  0.55135459  0.75579020    -0.61600
N735        N  0.67536709  0.59838704  0.78555397    -0.07900
N736        N  0.69910368  0.61815412  0.75443108    -0.60700
N737        N  0.66510143  0.55895598  0.87645326    -0.05600
N738        N  0.68189897  0.55075697  0.90664112    -0.61700
Mn739      Mn  0.62297744  0.51469086  0.83145557     1.18400
C740        C  0.70244465  0.58730082  0.92661423     0.96600
C741        C  0.70325758  0.58842646  0.73646576     0.97200
N742        N  0.48899290  0.50548809  0.87697291    -0.07900
N743        N  0.46408726  0.48541513  0.90731241    -0.64200
N744        N  0.49942256  0.54448701  0.78562206    -0.06700
N745        N  0.48179096  0.55178286  0.75539912    -0.64900
N746        N  0.48881442  0.50505085  0.78588559    -0.07400
N747        N  0.46387324  0.48463054  0.75565962    -0.64500
N748        N  0.49923644  0.54482643  0.87633238    -0.06300
N749        N  0.48136712  0.55232536  0.90609658    -0.65200
Mn750      Mn  0.51276211  0.48114004  0.83160383     1.10700
C751        C  0.45934477  0.51494679  0.92485605     0.97800
C752        C  0.45964726  0.51417133  0.73726245     0.97900
N753        N  0.62548450  0.64398830  0.78501924    -0.07400
N754        N  0.64468703  0.66820417  0.75398911    -0.62800
N755        N  0.58472696  0.63173432  0.87560132    -0.06800
N756        N  0.57481736  0.64740335  0.90524751    -0.59500
N757        N  0.62484779  0.64376505  0.87722202    -0.08100
N758        N  0.64301065  0.66749030  0.90878945    -0.62400
N759        N  0.58530692  0.63189042  0.78533422    -0.07100
N760        N  0.57645920  0.64817289  0.75510814    -0.59600
Mn761      Mn  0.65175891  0.62265917  0.83141534     1.20200
Mn762      Mn  0.54157824  0.58892541  0.83063353     1.10100
Cl763      Cl  0.58228699  0.55185158  0.83129442    -0.87500
C764        C  0.61364262  0.67063277  0.73589849     0.94800
C765        C  0.61122501  0.66953178  0.92558842     0.94600
C766        C  0.53913087  0.35407608  0.66544345     0.78700
N767        N  0.54068419  0.37291220  0.70016768    -0.79700
C768        C  0.54501294  0.41109215  0.70029269     0.81100
N769        N  0.54818636  0.43083733  0.66573416    -0.79600
C770        C  0.54450163  0.41068164  0.96352855     0.81200
N771        N  0.53730358  0.37128233  0.96439622    -0.81300
C772        C  0.37709198  0.49639985  0.66564548     0.78700
N773        N  0.39713780  0.50131249  0.96229104    -0.79700
C774        C  0.43697727  0.50865369  0.96206584     0.81100
N775        N  0.45722744  0.51225170  0.66559988    -0.79600
C776        C  0.43710103  0.50755426  0.70022610     0.81200
N777        N  0.39727441  0.49986021  0.70025591    -0.81300
C778        C  0.77574648  0.58656444  0.66408926     0.78700
N779        N  0.75845110  0.58796924  0.69888897    -0.79700
C780        C  0.72577407  0.59420703  0.69944029     0.81100
N781        N  0.70919820  0.59766800  0.66487287    -0.79600
C782        C  0.72418855  0.59143021  0.96370102     0.81200
N783        N  0.75123722  0.57775882  0.96461827    -0.81300
C784        C  0.60329709  0.73882391  0.66460626     0.78700
N785        N  0.60728164  0.72254518  0.69906902    -0.79700
C786        C  0.61821685  0.69336850  0.69923715     0.81100
N787        N  0.62407599  0.67918976  0.66445455    -0.79600
C788        C  0.61354819  0.69107272  0.96212260     0.81200
N789        N  0.59829086  0.71681027  0.96171212    -0.81300
C790        C  0.83555076  0.53129986  0.96732700    -0.27900
C791        C  0.86051395  0.54120621  0.66743951    -0.16000
C792        C  0.85472974  0.55983541  0.70131815     0.34700
C793        C  0.82872419  0.57625949  0.69898623    -0.27300
C794        C  0.80854059  0.57541353  0.66354055    -0.16600
C795        C  0.81071576  0.54898156  0.96519652     0.35800
N796        N  0.80485036  0.56280237  0.92757156    -0.90800
H797        H  0.84977222  0.52920227  0.94028265     0.16900
H798        H  0.82351547  0.58889302  0.72557173     0.16900
N799        N  0.87469331  0.56294711  0.73846953    -0.89900
H800        H  0.79094533  0.53707182  0.90839106     0.34200
H801        H  0.83454346  0.58512809  0.91633621     0.39300
H802        H  0.90733679  0.57802368  0.73408342     0.39000
H803        H  0.86284219  0.53291707  0.74989250     0.33800
C804        C  0.26445866  0.45938231  0.69652772    -0.27900
C805        C  0.25241272  0.47760661  0.66726670    -0.16000
C806        C  0.27633993  0.49032191  0.96354788     0.34700
C807        C  0.31648252  0.49553020  0.96353455    -0.27300
C808        C  0.33367623  0.48856621  0.66603080    -0.16600
C809        C  0.30452090  0.46440738  0.69605419     0.35800
N810        N  0.31498764  0.44399416  0.72563368    -0.90800
H811        H  0.24242429  0.44052632  0.71965817     0.16900
H812        H  0.33448474  0.50506576  0.93634282     0.16900
N813        N  0.26084764  0.49823357  0.92789772    -0.89900
H814        H  0.29278541  0.41173140  0.72409946     0.34200
H815        H  0.31223762  0.45459207  0.75330298     0.39300
H816        H  0.25990322  0.47821207  0.90598112     0.39000
H817        H  0.28235775  0.52915172  0.91907484     0.33800
C818        C  0.77408992  0.17817586  0.70335967    -0.27900
C819        C  0.75330255  0.16255192  0.66699936    -0.16000
C820        C  0.77874906  0.17537531  0.97206667     0.34700
C821        C  0.82129229  0.20787510  0.97371864    -0.27300
C822        C  0.83930499  0.22886078  0.66984168    -0.16600
C823        C  0.81656334  0.21085496  0.70517759     0.35800
N824        N  0.83584176  0.22592141  0.74311331    -0.90800
H825        H  0.75718291  0.16570551  0.73088405     0.16900
H826        H  0.84171869  0.21195031  0.94916798     0.16900
N827        N  0.76371642  0.14811133  0.93845838    -0.89900
H828        H  0.83373977  0.20083074  0.75876101     0.34200
H829        H  0.81856555  0.23606875  0.75843326     0.39300
H830        H  0.78149647  0.13412529  0.93602666     0.39000
H831        H  0.76913208  0.16642327  0.91322639     0.33800
C832        C  0.53709023  0.25529893  0.69553037    -0.27900
C833        C  0.51552834  0.22875843  0.66342545    -0.16000
C834        C  0.53378697  0.25513275  0.96893126     0.34700
C835        C  0.51217600  0.28547630  0.63252579    -0.27300
C836        C  0.53288313  0.31172600  0.66497576    -0.16600
C837        C  0.54641508  0.29676534  0.69645582     0.35800
N838        N  0.57009282  0.32377094  0.72892017    -0.90800
H839        H  0.54722468  0.24383840  0.71985252     0.16900
H840        H  0.55686748  0.31682310  0.94527389     0.16900
N841        N  0.55092095  0.24329356  0.93720112    -0.89900
H842        H  0.49821390  0.28911672  0.08992306     0.34200
H843        H  0.45269337  0.27002186  0.06412826     0.39300
H844        H  0.49876456  0.23303110  0.57273134     0.39000
H845        H  0.45223157  0.21640111  0.59567273     0.33800
C846        C  0.21392786  0.74441670  0.96537283    -0.27900
C847        C  0.19697965  0.72187733  0.67054875    -0.16000
C848        C  0.22095931  0.74218306  0.70478864     0.34700
C849        C  0.25289369  0.78480849  0.70320481    -0.27300
C850        C  0.26201699  0.80808424  0.66804067    -0.16600
C851        C  0.24589869  0.78700960  0.96333746     0.35800
N852        N  0.27009144  0.80286531  0.92776772    -0.90800
H853        H  0.20857745  0.72483479  0.93985759     0.16900
H854        H  0.27108127  0.79946017  0.72975141     0.16900
N855        N  0.21376694  0.71977784  0.74117280    -0.89900
H856        H  0.24934355  0.79776771  0.90454255     0.34200
H857        H  0.28416709  0.78564326  0.92205258     0.39300
H858        H  0.20635926  0.73460414  0.76287961     0.39000
H859        H  0.24187972  0.72191201  0.74943586     0.33800
C860        C  0.55519398  0.80455159  0.96344350    -0.27900
C861        C  0.55465558  0.82137189  0.66881860    -0.16000
C862        C  0.56214103  0.80549684  0.70377187     0.34700
C863        C  0.57889097  0.77977076  0.70153199    -0.27300
C864        C  0.58850349  0.76886839  0.66508573    -0.16600
C865        C  0.57130732  0.77829613  0.96138918     0.35800
N866        N  0.58726308  0.77394039  0.92446909    -0.90800
H867        H  0.55565906  0.82097972  0.93689793     0.16900
H868        H  0.58369069  0.76775527  0.72886445     0.16900
N869        N  0.55245092  0.81479282  0.74182959    -0.89900
H870        H  0.61142580  0.80370430  0.91526112     0.34200
H871        H  0.56285911  0.76244712  0.90361039     0.39300
H872        H  0.58017262  0.82952652  0.75869498     0.39000
H873        H  0.53077971  0.78645740  0.75564872     0.33800
loop_ 
_geom_bond_atom_site_label_1 
_geom_bond_atom_site_label_2 
_geom_bond_distance 
_geom_bond_site_symmetry_2 
_ccdc_geom_bond_type 
C1            N6   1.359   1_556  A
C1          N584   1.359       .  A
C1          C279   1.489       .  S
N2            C3   1.356       .  A
N2          C292   1.360       .  A
C3            N4   1.358       .  A
C3           C21   1.461       .  S
N4          C296   1.358       .  A
C5            N6   1.356       .  A
C5          N586   1.354       .  A
C5           C22   1.455       .  S
C7            N8   1.359   1_556  A
C7          N594   1.357       .  A
C7          C268   1.490       .  S
N8            C9   1.358       .  A
C9          N592   1.360       .  A
C9           C32   1.462       .  S
N10          C11   1.358       .  A
N10         C300   1.359       .  A
C11          N12   1.351       .  A
C11          C33   1.455       .  S
N12         C298   1.353       .  A
N13          N14   1.318       .  A
N13          N19   1.316       .  A
N13         Mn42   2.196       .  S
N14          C21   1.349       .  A
N15          N17   1.316       .  A
N15          N16   1.322       .  A
N15         Mn31   2.207       .  S
N16          C22   1.352       .  A
N17          N18   1.317       .  A
N17         Mn42   2.190       .  S
N18          C22   1.348       .  A
N19          N20   1.324       .  A
N19         Mn31   2.213       .  S
N20          C21   1.353       .  A
N23          N29   1.316       .  A
N23          N24   1.323       .  A
N23         Mn53   2.208   1_565  S
N24          C32   1.353       .  A
N25          N26   1.316       .  A
N25          N27   1.315       .  A
N25         Mn31   2.188       .  S
N26          C33   1.349       .  A
N27          N28   1.323       .  A
N27         Mn53   2.202   1_565  S
N28          C33   1.351       .  A
N29          N30   1.318       .  A
N29         Mn31   2.200       .  S
N30          C32   1.350       .  A
Mn31        Cl55   2.548       .  S
N34          N35   1.322       .  A
N34          N40   1.316       .  A
N34         Mn42   2.208   1_545  S
N35          C43   1.353       .  A
N36          N38   1.316       .  A
N36          N37   1.319       .  A
N36         Mn54   2.199       .  S
N37          C44   1.350       .  A
N38          N39   1.321       .  A
N38         Mn42   2.200   1_545  S
N39          C44   1.351       .  A
N40          N41   1.317       .  A
N40         Mn54   2.188       .  S
N41          C43   1.348       .  A
Mn42        Cl55   2.547       .  S
C43          C66   1.455       .  S
C44          C68   1.457       .  S
N45          N46   1.321       .  A
N45          N51   1.315       .  A
N45         Mn53   2.199       .  S
N46          C56   1.351       .  A
N47          N48   1.319       .  A
N47          N49   1.316       .  A
N47         Mn54   2.201       .  S
N48          C57   1.350       .  A
N49          N50   1.322       .  A
N49         Mn53   2.202       .  S
N50          C57   1.352       .  A
N51          N52   1.319       .  A
N51         Mn54   2.193       .  S
N52          C56   1.350       .  A
Mn53        Cl55   2.545   1_545  S
Mn54        Cl55   2.548   1_545  S
C56          C60   1.455       .  S
C57          C62   1.460       .  S
C58          N63   1.360       .  A
C58         N641   1.357   1_554  A
C58         C251   1.484       .  S
N59          C60   1.355       .  A
N59         C349   1.359       .  A
C60          N61   1.355       .  A
N61         C353   1.355       .  A
C62          N63   1.358       .  A
C62         N643   1.357       .  A
C64          N65   1.359       .  A
C64         N651   1.359   1_554  A
C64         C237   1.482       .  S
N65          C66   1.357       .  A
C66         N649   1.355       .  A
N67          C68   1.355       .  A
N67         C357   1.355       .  A
C68          N69   1.357       .  A
N69         C355   1.360       .  A
N70          N71   1.322       .  A
N70          N76   1.315       .  A
N70         Mn99   2.201       .  S
N71          C78   1.352       .  A
N72          N74   1.315       .  A
N72          N73   1.318       .  A
N72         Mn88   2.188   1_655  S
N73          C79   1.349       .  A
N74          N75   1.319       .  A
N74         Mn99   2.194       .  S
N75          C79   1.349       .  A
N76          N77   1.317       .  A
N76         Mn88   2.188   1_655  S
N77          C78   1.348       .  A
C78         C129   1.453       .  S
C79         C131   1.450       .  S
N80          N86   1.316       .  A
N80          N81   1.321       .  A
N80        Mn110   2.204       .  S
N81          C89   1.352       .  A
N82          N83   1.320       .  A
N82          N84   1.316       .  A
N82         Mn88   2.196       .  S
N83          C90   1.350       .  A
N84          N85   1.319       .  A
N84        Mn110   2.198       .  S
N85          C90   1.350       .  A
N86          N87   1.319       .  A
N86         Mn88   2.197       .  S
N87          C89   1.350       .  A
Mn88       Cl112   2.546       .  S
C89         C137   1.459       .  S
C90         C135   1.453       .  S
N91          N92   1.315       .  A
N91          N97   1.315       .  A
N91         Mn99   2.184       .  S
N92         C100   1.347       .  A
N93          N95   1.315       .  A
N93          N94   1.324       .  A
N93        Mn111   2.212   1_655  S
N94         C101   1.354       .  A
N95          N96   1.316       .  A
N95         Mn99   2.184       .  S
N96         C101   1.348       .  A
N97          N98   1.325       .  A
N97        Mn111   2.209   1_655  S
N98         C100   1.354       .  A
Mn99       Cl112   2.544   1_655  S
C100        C123   1.458       .  S
C101        C125   1.459       .  S
N102        N103   1.318       .  A
N102        N108   1.316       .  A
N102       Mn110   2.197       .  S
N103        C113   1.349       .  A
N104        N105   1.320       .  A
N104        N106   1.316       .  A
N104       Mn111   2.201       .  S
N105        C114   1.350       .  A
N106        N107   1.319       .  A
N106       Mn110   2.195       .  S
N107        C114   1.350       .  A
N108        N109   1.321       .  A
N108       Mn111   2.197       .  S
N109        C113   1.350       .  A
Mn110      Cl112   2.547       .  S
Mn111      Cl112   2.544       .  S
C113        C117   1.453       .  S
C114        C119   1.456       .  S
C115        N120   1.361       .  A
C115        N698   1.355   1_554  A
C115        C223   1.485   1_554  S
N116        C117   1.353       .  A
N116        C406   1.356       .  A
C117        N409   1.354       .  A
N118        C119   1.355       .  A
N118        C699   1.355   1_554  A
C119        N120   1.356       .  A
C121        N122   1.355       .  A
C121        N708   1.356   1_554  A
C121        C240   1.481       .  S
N122        C123   1.355       .  A
C123        N124   1.360       .  A
N124        C707   1.360   1_554  A
C125        N126   1.358       .  A
C125        N415   1.359       .  A
N126        C412   1.358       .  A
C127        N132   1.356       .  A
C127        N710   1.359   1_554  A
C127        C209   1.488       .  S
N128        C129   1.356       .  A
N128        C418   1.359       .  A
C129        N421   1.355       .  A
N130        C131   1.354       .  A
N130        C711   1.354   1_554  A
C131        N132   1.354       .  A
C133        N138   1.361       .  A
C133        N716   1.362   1_554  A
C133        C265   1.489       .  S
N134        C135   1.354       .  A
N134        C424   1.360       .  A
C135        N427   1.353       .  A
N136        C137   1.356       .  A
N136        C717   1.356   1_554  A
C137        N138   1.357       .  A
N139        N140   1.322       .  A
N139        N145   1.316       .  A
N139       Mn168   2.207       .  S
N140        C147   1.352       .  A
N141        N143   1.316       .  A
N141        N142   1.321       .  A
N141       Mn157   2.205       .  S
N142        C148   1.352       .  A
N143        N144   1.321       .  A
N143       Mn168   2.199       .  S
N144        C148   1.351       .  A
N145        N146   1.319       .  A
N145       Mn157   2.194       .  S
N146        C147   1.349       .  A
C147        C186   1.458       .  S
C148        C188   1.461       .  S
N149        N155   1.316       .  A
N149        N150   1.323       .  A
N149       Mn179   2.206       .  S
N150        C158   1.353       .  A
N151        N152   1.316       .  A
N151        N153   1.316       .  A
N151       Mn157   2.190       .  S
N152        C159   1.348       .  A
N153        N154   1.325       .  A
N153       Mn179   2.217       .  S
N154        C159   1.355       .  A
N155        N156   1.315       .  A
N155       Mn157   2.183       .  S
N156        C158   1.347       .  A
Mn157      Cl181   2.544       .  S
C158        C200   1.455       .  S
C159        C198   1.461       .  S
N160        N161   1.322       .  A
N160        N166   1.316       .  A
N160       Mn168   2.211       .  S
N161        C169   1.352       .  A
N162        N164   1.316       .  A
N162        N163   1.319       .  A
N162       Mn180   2.195       .  S
N163        C170   1.350       .  A
N164        N165   1.320       .  A
N164       Mn168   2.197       .  S
N165        C170   1.350       .  A
N166        N167   1.321       .  A
N166       Mn180   2.202       .  S
N167        C169   1.351       .  A
Mn168      Cl181   2.547       .  S
C169        C192   1.463       .  S
C170        C194   1.454       .  S
N171        N172   1.324       .  A
N171        N177   1.316       .  A
N171       Mn179   2.207       .  S
N172        C182   1.353       .  A
N173        N174   1.316       .  A
N173        N175   1.316       .  A
N173       Mn180   2.187       .  S
N174        C183   1.348       .  A
N175        N176   1.324       .  A
N175       Mn179   2.215       .  S
N176        C183   1.354       .  A
N177        N178   1.316       .  A
N177       Mn180   2.189       .  S
N178        C182   1.348       .  A
Mn179      Cl181   2.547       .  S
Mn180      Cl181   2.547       .  S
C182        C204   1.457       .  S
C183        C206   1.460       .  S
C184        N185   1.359   1_556  A
C184        N771   1.361       .  A
C184        C254   1.485   1_556  S
N185        C186   1.356       .  A
C186        N187   1.355   1_554  A
N187        C770   1.356       .  A
C188        N189   1.358       .  A
C188        N478   1.357       .  A
N189        C475   1.362       .  A
C190        N195   1.356   1_556  A
C190        N773   1.363       .  A
C190        C226   1.489       .  S
N191        C192   1.359       .  A
N191        C481   1.362       .  A
C192        N484   1.357       .  A
N193        C194   1.354   1_556  A
N193        C774   1.356       .  A
C194        N195   1.351       .  A
C196        N197   1.357   1_556  A
C196        N783   1.353       .  A
C196        C212   1.488       .  S
N197        C198   1.358       .  A
C198        N199   1.360   1_554  A
N199        C782   1.359       .  A
C200        N201   1.354       .  A
C200        N490   1.359       .  A
N201        C487   1.354       .  A
C202        N203   1.356   1_556  A
C202        N789   1.355       .  A
C202        C282   1.488       .  S
N203        C204   1.355       .  A
C204        N205   1.359   1_554  A
N205        C788   1.359       .  A
C206        N207   1.356       .  A
C206        N496   1.359       .  A
N207        C493   1.356       .  A
C208        C213   1.399       .  A
C208        C500   1.406       .  A
C208        H215   1.083       .  S
C209        C210   1.421       .  A
C209        C790   1.406   1_554  A
C210        C211   1.398       .  A
C210        N217   1.433       .  S
C211        C212   1.405   1_554  A
C211        H216   1.083       .  S
C212        C795   1.414       .  A
C213        C503   1.413       .  A
C213        N214   1.433       .  S
N214        H218   1.046       .  S
N214        H219   1.046       .  S
N217        H220   1.044       .  S
N217        H221   1.046       .  S
C222        C223   1.402   1_554  A
C222        C227   1.398       .  A
C222        H229   1.084       .  S
C223        C806   1.415       .  A
C224        C225   1.401       .  A
C224        C514   1.414       .  A
C224        N231   1.433       .  S
C225        C517   1.403       .  A
C225        H230   1.084       .  S
C226        C227   1.416   1_556  A
C226        C807   1.405       .  A
C227        N228   1.433       .  S
N228        H232   1.044       .  S
N228        H233   1.048       .  S
N231        H234   1.045       .  S
N231        H235   1.046       .  S
C236        C237   1.405       .  A
C236        C241   1.403       .  A
C236        H243   1.084       .  S
C237        C820   1.412   1_554  A
C238        C239   1.403       .  A
C238        C528   1.413       .  A
C238        N245   1.432       .  S
C239        C531   1.405       .  A
C239        H244   1.083       .  S
C240        C241   1.413       .  A
C240        C821   1.402   1_554  A
C241        N242   1.433       .  S
N242        H246   1.045       .  S
N242        H247   1.046       .  S
N245        H248   1.046       .  S
N245        H249   1.045       .  S
C250        C251   1.403       .  A
C250        C255   1.402       .  A
C250        H257   1.084       .  S
C251        C834   1.415   1_554  A
C252        C542   1.417       .  A
C252        C544   1.405       .  A
C252        N259   1.433       .  S
C253        C254   1.404   1_556  A
C253        C834   1.405       .  A
C253        H840   1.083       .  S
C254        C255   1.412       .  A
C255        N256   1.432       .  S
N256        H842   1.045       .  S
N256        H843   1.046       .  S
H258        C544   1.083       .  S
N259        H553   1.045       .  S
N259        H554   1.046       .  S
H260        N547   1.045       .  S
H261        N547   1.046       .  S
H262        N841   1.046       .  S
H263        N841   1.046       .  S
C264        C269   1.401       .  A
C264        C556   1.403       .  A
C264        H271   1.083       .  S
C265        C266   1.413       .  A
C265        C846   1.404   1_554  A
C266        C267   1.405       .  A
C266        N273   1.432       .  S
C267        C268   1.406   1_554  A
C267        H272   1.084       .  S
C268        C851   1.415       .  A
C269        C559   1.419       .  A
C269        N270   1.439       .  S
N270        H274   1.044       .  S
N270        H275   1.046       .  S
N273        H276   1.046       .  S
N273        H277   1.046       .  S
C278        C283   1.401       .  A
C278        C570   1.406       .  A
C278        H285   1.083       .  S
C279        C280   1.413   1_556  A
C279        C860   1.407       .  A
C280        C281   1.400       .  A
C280        N287   1.433       .  S
C281        C282   1.406   1_554  A
C281        H286   1.083       .  S
C282        C865   1.413       .  A
C283        C573   1.415       .  A
C283        N284   1.432       .  S
N284        H288   1.046       .  S
N284        H289   1.046       .  S
N287        H290   1.045       .  S
N287        H291   1.046       .  S
C292        N297   1.357       .  A
C292        C570   1.492       .  S
N293        C583   1.361       .  A
N293        C294   1.357       .  A
C294        N295   1.357       .  A
C294        C312   1.462       .  S
N295        C587   1.357       .  A
C296        N297   1.355       .  A
C296        C313   1.457       .  S
C298        N299   1.358       .  A
C298        C559   1.486       .  S
N299        C300   1.358       .  A
C300        C323   1.458       .  S
N301        C591   1.359       .  A
N301        C302   1.359       .  A
C302        N303   1.356       .  A
C302        C324   1.459       .  S
N303        C589   1.356       .  A
N304        N305   1.319       .  A
N304        N310   1.315       .  A
N304       Mn333   2.194       .  S
N305        C312   1.350       .  A
N306        N308   1.315       .  A
N306        N307   1.322       .  A
N306       Mn322   2.203       .  S
N307        C313   1.352       .  A
N308        N309   1.318       .  A
N308       Mn333   2.190       .  S
N309        C313   1.349       .  A
N310        N311   1.323       .  A
N310       Mn322   2.213       .  S
N311        C312   1.353       .  A
N314        N320   1.316       .  A
N314        N315   1.323       .  A
N314       Mn344   2.207   1_565  S
N315        C323   1.353       .  A
N316        N317   1.315       .  A
N316        N318   1.316       .  A
N316       Mn322   2.182       .  S
N317        C324   1.347       .  A
N318        N319   1.325       .  A
N318       Mn344   2.218   1_565  S
N319        C324   1.355       .  A
N320        N321   1.317       .  A
N320       Mn322   2.190       .  S
N321        C323   1.349       .  A
Mn322      Cl346   2.545   1_565  S
N325        N326   1.320       .  A
N325        N331   1.316       .  A
N325       Mn333   2.198   1_545  S
N326        C334   1.350       .  A
N327        N329   1.316       .  A
N327        N328   1.319       .  A
N327       Mn345   2.195       .  S
N328        C335   1.350       .  A
N329        N330   1.320       .  A
N329       Mn333   2.196   1_545  S
N330        C335   1.350       .  A
N331        N332   1.319       .  A
N331       Mn345   2.199       .  S
N332        C334   1.350       .  A
Mn333      Cl346   2.547   1_565  S
C334        C357   1.455       .  S
C335        C359   1.453       .  S
N336        N337   1.321       .  A
N336        N342   1.316       .  A
N336       Mn344   2.198       .  S
N337        C347   1.351       .  A
N338        N339   1.320       .  A
N338        N340   1.316       .  A
N338       Mn345   2.197       .  S
N339        C348   1.350       .  A
N340        N341   1.322       .  A
N340       Mn344   2.214       .  S
N341        C348   1.353       .  A
N342        N343   1.318       .  A
N342       Mn345   2.194       .  S
N343        C347   1.349       .  A
Mn344      Cl346   2.544       .  S
Mn345      Cl346   2.549       .  S
C347        C351   1.454       .  S
C348        C353   1.462       .  S
C349        N354   1.364       .  A
C349        C542   1.496       .  S
N350        C640   1.357       .  A
N350        C351   1.354       .  A
C351        N352   1.356       .  A
N352        C644   1.356       .  A
C353        N354   1.359       .  A
C355        N356   1.359       .  A
C355        C528   1.487       .  S
N356        C357   1.355       .  A
N358        C648   1.355       .  A
N358        C359   1.355       .  A
C359        N360   1.353       .  A
N360        C646   1.357       .  A
N361        N362   1.323       .  A
N361        N367   1.315       .  A
N361       Mn390   2.204       .  S
N362        C369   1.353       .  A
N363        N365   1.316       .  A
N363        N364   1.317       .  A
N363       Mn379   2.188   1_655  S
N364        C370   1.348       .  A
N365        N366   1.321       .  A
N365       Mn390   2.203       .  S
N366        C370   1.351       .  A
N367        N368   1.316       .  A
N367       Mn379   2.183   1_655  S
N368        C369   1.347       .  A
C369        C420   1.454       .  S
C370        C422   1.452       .  S
N371        N377   1.316       .  A
N371        N372   1.319       .  A
N371       Mn401   2.196       .  S
N372        C380   1.350       .  A
N373        N374   1.322       .  A
N373        N375   1.316       .  A
N373       Mn379   2.201       .  S
N374        C381   1.352       .  A
N375        N376   1.318       .  A
N375       Mn401   2.193       .  S
N376        C381   1.349       .  A
N377        N378   1.319       .  A
N377       Mn379   2.192       .  S
N378        C380   1.349       .  A
Mn379      Cl403   2.544       .  S
C380        C428   1.452       .  S
C381        C426   1.455       .  S
N382        N383   1.316       .  A
N382        N388   1.315       .  A
N382       Mn390   2.187       .  S
N383        C391   1.348       .  A
N384        N386   1.315       .  A
N384        N385   1.321       .  A
N384       Mn402   2.203   1_655  S
N385        C392   1.351       .  A
N386        N387   1.318       .  A
N386       Mn390   2.188       .  S
N387        C392   1.350       .  A
N388        N389   1.324       .  A
N388       Mn402   2.209   1_655  S
N389        C391   1.353       .  A
Mn390      Cl403   2.547   1_655  S
C391        C414   1.457       .  S
C392        C416   1.455       .  S
N393        N394   1.319       .  A
N393        N399   1.316       .  A
N393       Mn401   2.193       .  S
N394        C404   1.349       .  A
N395        N396   1.321       .  A
N395        N397   1.316       .  A
N395       Mn402   2.198       .  S
N396        C405   1.351       .  A
N397        N398   1.319       .  A
N397       Mn401   2.197       .  S
N398        C405   1.350       .  A
N399        N400   1.321       .  A
N399       Mn402   2.204       .  S
N400        C404   1.352       .  A
Mn401      Cl403   2.547       .  S
Mn402      Cl403   2.540       .  S
C404        C408   1.457       .  S
C405        C410   1.457       .  S
C406        N411   1.361       .  A
C406        C514   1.484       .  S
N407        C697   1.359       .  A
N407        C408   1.356       .  A
C408        N700   1.355       .  A
N409        C410   1.356       .  A
C410        N411   1.359       .  A
C412        N413   1.355       .  A
C412        C531   1.487       .  S
N413        C414   1.354       .  A
C414        N415   1.358       .  A
C416        N706   1.356       .  A
C416        N417   1.355       .  A
N417        C703   1.358       .  A
C418        N423   1.355       .  A
C418        C500   1.489       .  S
N419        C709   1.357       .  A
N419        C420   1.353       .  A
C420        N712   1.358       .  A
N421        C422   1.355       .  A
C422        N423   1.353       .  A
C424        N429   1.359       .  A
C424        C556   1.485       .  S
N425        C715   1.360       .  A
N425        C426   1.356       .  A
C426        N718   1.355       .  A
N427        C428   1.354       .  A
C428        N429   1.356       .  A
N430        N431   1.322       .  A
N430        N436   1.316       .  A
N430       Mn459   2.207       .  S
N431        C438   1.352       .  A
N432        N434   1.316       .  A
N432        N433   1.320       .  A
N432       Mn448   2.200       .  S
N433        C439   1.351       .  A
N434        N435   1.320       .  A
N434       Mn459   2.194       .  S
N435        C439   1.350       .  A
N436        N437   1.322       .  A
N436       Mn448   2.208       .  S
N437        C438   1.352       .  A
C438        C477   1.464       .  S
C439        C479   1.454       .  S
N440        N446   1.316       .  A
N440        N441   1.323       .  A
N440       Mn470   2.202       .  S
N441        C449   1.351       .  A
N442        N443   1.317       .  A
N442        N444   1.316       .  A
N442       Mn448   2.189       .  S
N443        C450   1.348       .  A
N444        N445   1.324       .  A
N444       Mn470   2.210       .  S
N445        C450   1.353       .  A
N446        N447   1.318       .  A
N446       Mn448   2.199       .  S
N447        C449   1.350       .  A
Mn448      Cl472   2.547       .  S
C449        C491   1.458       .  S
C450        C489   1.458       .  S
N451        N452   1.321       .  A
N451        N457   1.316       .  A
N451       Mn459   2.207       .  S
N452        C460   1.352       .  A
N453        N455   1.316       .  A
N453        N454   1.319       .  A
N453       Mn471   2.195       .  S
N454        C461   1.350       .  A
N455        N456   1.320       .  A
N455       Mn459   2.194       .  S
N456        C461   1.350       .  A
N457        N458   1.321       .  A
N457       Mn471   2.203       .  S
N458        C460   1.351       .  A
Mn459      Cl472   2.547       .  S
C460        C483   1.461       .  S
C461        C485   1.454       .  S
N462        N463   1.324       .  A
N462        N468   1.315       .  A
N462       Mn470   2.206       .  S
N463        C473   1.353       .  A
N464        N465   1.317       .  A
N464        N466   1.316       .  A
N464       Mn471   2.193       .  S
N465        C474   1.349       .  A
N466        N467   1.325       .  A
N466       Mn470   2.216       .  S
N467        C474   1.355       .  A
N468        N469   1.317       .  A
N468       Mn471   2.192       .  S
N469        C473   1.349       .  A
Mn470      Cl472   2.547       .  S
Mn471      Cl472   2.547       .  S
C473        C495   1.460       .  S
C474        C497   1.463       .  S
C475        N476   1.361       .  A
C475        C545   1.496       .  S
N476        C477   1.357       .  A
C477        N478   1.356       .  A
C479        N769   1.354       .  A
C479        N480   1.355       .  A
N480        C766   1.359       .  A
C481        N486   1.357       .  A
C481        C517   1.485       .  S
N482        C772   1.363       .  A
N482        C483   1.360       .  A
C483        N775   1.354       .  A
N484        C485   1.356       .  A
C485        N486   1.353       .  A
C487        N488   1.357       .  A
C487        C503   1.485       .  S
N488        C489   1.356       .  A
C489        N490   1.359       .  A
C491        N781   1.358       .  A
C491        N492   1.353       .  A
N492        C778   1.355       .  A
C493        N494   1.358       .  A
C493        C573   1.492       .  S
N494        C495   1.357       .  A
C495        N496   1.359       .  A
C497        N787   1.359       .  A
C497        N498   1.358       .  A
N498        C784   1.358       .  A
C499        C791   1.407       .  A
C499        C504   1.398       .  A
C499        H506   1.083       .  S
C500        C501   1.422       .  A
C501        C502   1.397       .  A
C501        N508   1.433       .  S
C502        C503   1.404       .  A
C502        H507   1.084       .  S
C504        C794   1.414       .  A
C504        N505   1.433       .  S
N505        H509   1.044       .  S
N505        H510   1.047       .  S
N508        H511   1.046       .  S
N508        H512   1.044       .  S
C513        C514   1.403       .  A
C513        C518   1.403       .  A
C513        H520   1.084       .  S
C515        C805   1.413       .  A
C515        C516   1.405       .  A
C515        N522   1.432       .  S
C516        C808   1.404       .  A
C516        H521   1.084       .  S
C517        C518   1.414       .  A
C518        N519   1.433       .  S
N519        H523   1.045       .  S
N519        H524   1.046       .  S
N522        H525   1.045       .  S
N522        H526   1.046       .  S
C527        C528   1.405       .  A
C527        C532   1.401       .  A
C527        H534   1.083       .  S
C529        C819   1.415       .  A
C529        C530   1.399       .  A
C529        N536   1.433       .  S
C530        C822   1.404       .  A
C530        H535   1.083       .  S
C531        C532   1.415       .  A
C532        N533   1.433       .  S
N533        H537   1.045       .  S
N533        H538   1.046       .  S
N536        H539   1.045       .  S
N536        H540   1.046       .  S
C541        C542   1.405       .  A
C541        C546   1.404       .  A
C541        H548   1.083       .  S
C543        C833   1.412       .  A
C543        C835   1.400       .  A
C543        N550   1.433       .  S
C544        C545   1.407       .  A
C545        C546   1.415       .  A
C546        N547   1.432       .  S
H549        C835   1.084       .  S
N550        H844   1.046       .  S
N550        H845   1.045       .  S
H551        N838   1.046       .  S
H552        N838   1.045       .  S
C555        C847   1.405       .  A
C555        C560   1.401       .  A
C555        H562   1.083       .  S
C556        C557   1.412       .  A
C557        C558   1.402       .  A
C557        N564   1.432       .  S
C558        C559   1.405       .  A
C558        H563   1.084       .  S
C560        C850   1.413       .  A
C560        N561   1.432       .  S
N561        H565   1.045       .  S
N561        H566   1.046       .  S
N564        H567   1.046       .  S
N564        H568   1.045       .  S
C569        C861   1.408       .  A
C569        C574   1.405       .  A
C569        H576   1.083       .  S
C570        C571   1.415       .  A
C571        C572   1.403       .  A
C571        N578   1.433       .  S
C572        C573   1.407       .  A
C572        H577   1.083       .  S
C574        C864   1.415       .  A
C574        N575   1.433       .  S
N575        H579   1.046       .  S
N575        H580   1.046       .  S
N578        H581   1.046       .  S
N578        H582   1.045       .  S
C583        N588   1.360       .  A
C583        C861   1.497       .  S
N584        C585   1.355       .  A
C585        N586   1.354   1_556  A
C585        C603   1.453       .  S
C587        N588   1.358       .  A
C587        C604   1.462       .  S
C589        N590   1.356       .  A
C589        C850   1.488       .  S
N590        C591   1.356       .  A
C591        C614   1.457       .  S
N592        C593   1.359   1_554  A
C593        N594   1.356       .  A
C593        C615   1.463       .  S
N595        N596   1.319       .  A
N595        N601   1.315       .  A
N595       Mn624   2.192       .  S
N596        C603   1.350       .  A
N597        N599   1.316       .  A
N597        N598   1.323       .  A
N597       Mn613   2.213       .  S
N598        C604   1.354       .  A
N599        N600   1.319       .  A
N599       Mn624   2.195       .  S
N600        C604   1.349       .  A
N601        N602   1.320       .  A
N601       Mn613   2.198       .  S
N602        C603   1.350       .  A
N605        N611   1.316       .  A
N605        N606   1.324       .  A
N605       Mn635   2.211   1_565  S
N606        C614   1.354       .  A
N607        N608   1.317       .  A
N607        N609   1.316       .  A
N607       Mn613   2.195       .  S
N608        C615   1.349       .  A
N609        N610   1.325       .  A
N609       Mn635   2.212   1_565  S
N610        C615   1.354       .  A
N611        N612   1.315       .  A
N611       Mn613   2.184       .  S
N612        C614   1.347       .  A
Mn613      Cl637   2.544   1_565  S
N616        N617   1.320       .  A
N616        N622   1.316       .  A
N616       Mn624   2.201   1_545  S
N617        C625   1.350       .  A
N618        N620   1.316       .  A
N618        N619   1.319       .  A
N618       Mn636   2.194       .  S
N619        C626   1.350       .  A
N620        N621   1.320       .  A
N620       Mn624   2.200   1_545  S
N621        C626   1.350       .  A
N622        N623   1.319       .  A
N622       Mn636   2.196       .  S
N623        C625   1.350       .  A
Mn624      Cl637   2.547   1_565  S
C625        C648   1.455       .  S
C626        C650   1.455       .  S
N627        N628   1.321       .  A
N627        N633   1.316       .  A
N627       Mn635   2.203       .  S
N628        C638   1.351       .  A
N629        N630   1.318       .  A
N629        N631   1.316       .  A
N629       Mn636   2.191       .  S
N630        C639   1.349       .  A
N631        N632   1.322       .  A
N631       Mn635   2.208       .  S
N632        C639   1.353       .  A
N633        N634   1.319       .  A
N633       Mn636   2.195       .  S
N634        C638   1.350       .  A
Mn635      Cl637   2.545       .  S
Mn636      Cl637   2.550       .  S
C638        C642   1.456       .  S
C639        C644   1.457       .  S
C640        N645   1.360       .  A
C640        C833   1.482       .  S
N641        C642   1.354       .  A
C642        N643   1.357   1_556  A
C644        N645   1.357       .  A
C646        N647   1.360       .  A
C646        C819   1.487       .  S
N647        C648   1.355       .  A
N649        C650   1.355   1_554  A
C650        N651   1.355       .  A
N652        N653   1.321       .  A
N652        N658   1.316       .  A
N652       Mn681   2.202       .  S
N653        C660   1.351       .  A
N654        N656   1.316       .  A
N654        N655   1.317       .  A
N654       Mn670   2.189   1_655  S
N655        C661   1.348       .  A
N656        N657   1.324       .  A
N656       Mn681   2.217       .  S
N657        C661   1.355       .  A
N658        N659   1.317       .  A
N658       Mn670   2.184   1_655  S
N659        C660   1.348       .  A
C660        C711   1.452       .  S
C661        C713   1.461       .  S
N662        N668   1.315       .  A
N662        N663   1.318       .  A
N662       Mn692   2.192       .  S
N663        C671   1.350       .  A
N664        N665   1.323       .  A
N664        N666   1.315       .  A
N664       Mn670   2.207       .  S
N665        C672   1.353       .  A
N666        N667   1.320       .  A
N666       Mn692   2.200       .  S
N667        C672   1.350       .  A
N668        N669   1.320       .  A
N668       Mn670   2.193       .  S
N669        C671   1.349       .  A
Mn670      Cl694   2.546       .  S
C671        C719   1.452       .  S
C672        C717   1.462       .  S
N673        N674   1.315       .  A
N673        N679   1.315       .  A
N673       Mn681   2.184       .  S
N674        C682   1.347       .  A
N675        N677   1.316       .  A
N675        N676   1.323       .  A
N675       Mn693   2.204   1_655  S
N676        C683   1.352       .  A
N677        N678   1.318       .  A
N677       Mn681   2.199       .  S
N678        C683   1.351       .  A
N679        N680   1.323       .  A
N679       Mn693   2.202   1_655  S
N680        C682   1.352       .  A
Mn681      Cl694   2.544   1_655  S
C682        C705   1.452       .  S
C683        C707   1.461       .  S
N684        N685   1.316       .  A
N684        N690   1.315       .  A
N684       Mn692   2.182       .  S
N685        C695   1.347       .  A
N686        N687   1.322       .  A
N686        N688   1.316       .  A
N686       Mn693   2.203       .  S
N687        C696   1.352       .  A
N688        N689   1.320       .  A
N688       Mn692   2.202       .  S
N689        C696   1.351       .  A
N690        N691   1.320       .  A
N690       Mn693   2.194       .  S
N691        C695   1.350       .  A
Mn692      Cl694   2.545       .  S
Mn693      Cl694   2.544       .  S
C695        C699   1.448       .  S
C696        C701   1.460       .  S
C697        N702   1.362       .  A
C697        C805   1.485       .  S
N698        C699   1.353       .  A
N700        C701   1.356       .  A
C701        N702   1.359       .  A
C703        N704   1.355       .  A
C703        C822   1.486       .  S
N704        C705   1.354       .  A
C705        N706   1.356       .  A
C707        N708   1.355       .  A
C709        N714   1.357       .  A
C709        C791   1.492       .  S
N710        C711   1.354       .  A
N712        C713   1.358       .  A
C713        N714   1.358       .  A
C715        N720   1.357       .  A
C715        C847   1.487       .  S
N716        C717   1.357       .  A
N718        C719   1.355       .  A
C719        N720   1.354       .  A
N721        N722   1.321       .  A
N721        N727   1.316       .  A
N721       Mn750   2.199       .  S
N722        C729   1.351       .  A
N723        N725   1.316       .  A
N723        N724   1.321       .  A
N723       Mn739   2.204       .  S
N724        C730   1.351       .  A
N725        N726   1.320       .  A
N725       Mn750   2.199       .  S
N726        C730   1.350       .  A
N727        N728   1.318       .  A
N727       Mn739   2.193       .  S
N728        C729   1.349       .  A
C729        C768   1.453       .  S
C730        C770   1.458       .  S
N731        N737   1.316       .  A
N731        N732   1.324       .  A
N731       Mn761   2.205       .  S
N732        C740   1.353       .  A
N733        N734   1.319       .  A
N733        N735   1.316       .  A
N733       Mn739   2.199       .  S
N734        C741   1.350       .  A
N735        N736   1.323       .  A
N735       Mn761   2.210       .  S
N736        C741   1.352       .  A
N737        N738   1.315       .  A
N737       Mn739   2.188       .  S
N738        C740   1.348       .  A
Mn739      Cl763   2.549       .  S
C740        C782   1.455       .  S
C741        C780   1.461       .  S
N742        N743   1.321       .  A
N742        N748   1.316       .  A
N742       Mn750   2.204       .  S
N743        C751   1.352       .  A
N744        N746   1.315       .  A
N744        N745   1.318       .  A
N744       Mn762   2.191       .  S
N745        C752   1.349       .  A
N746        N747   1.320       .  A
N746       Mn750   2.198       .  S
N747        C752   1.351       .  A
N748        N749   1.321       .  A
N748       Mn762   2.205       .  S
N749        C751   1.351       .  A
Mn750      Cl763   2.547       .  S
C751        C774   1.461       .  S
C752        C776   1.454       .  S
N753        N754   1.324       .  A
N753        N759   1.316       .  A
N753       Mn761   2.209       .  S
N754        C764   1.353       .  A
N755        N756   1.314       .  A
N755        N757   1.316       .  A
N755       Mn762   2.179       .  S
N756        C765   1.346       .  A
N757        N758   1.325       .  A
N757       Mn761   2.214       .  S
N758        C765   1.355       .  A
N759        N760   1.318       .  A
N759       Mn762   2.198       .  S
N760        C764   1.350       .  A
Mn761      Cl763   2.548       .  S
Mn762      Cl763   2.547       .  S
C764        C786   1.462       .  S
C765        C788   1.457       .  S
C766        N767   1.359       .  A
C766        C836   1.481       .  S
N767        C768   1.356       .  A
C768        N769   1.354       .  A
C770        N771   1.357       .  A
C772        N777   1.359       .  A
C772        C808   1.485       .  S
N773        C774   1.361       .  A
N775        C776   1.354       .  A
C776        N777   1.355       .  A
C778        N779   1.359       .  A
C778        C794   1.488       .  S
N779        C780   1.358       .  A
C780        N781   1.359       .  A
C782        N783   1.353       .  A
C784        N785   1.359       .  A
C784        C864   1.496       .  S
N785        C786   1.357       .  A
C786        N787   1.359       .  A
C788        N789   1.357       .  A
C790        C795   1.398       .  A
C790        H797   1.083       .  S
C791        C792   1.420       .  A
C792        C793   1.400       .  A
C792        N799   1.432       .  S
C793        C794   1.406       .  A
C793        H798   1.084       .  S
C795        N796   1.433       .  S
N796        H800   1.047       .  S
N796        H801   1.045       .  S
N799        H802   1.047       .  S
N799        H803   1.043       .  S
C804        C805   1.403       .  A
C804        C809   1.404       .  A
C804        H811   1.084       .  S
C806        C807   1.404       .  A
C806        N813   1.433       .  S
C807        H812   1.083       .  S
C808        C809   1.413       .  A
C809        N810   1.433       .  S
N810        H814   1.046       .  S
N810        H815   1.045       .  S
N813        H816   1.045       .  S
N813        H817   1.046       .  S
C818        C819   1.406       .  A
C818        C823   1.400       .  A
C818        H825   1.083       .  S
C820        C821   1.400       .  A
C820        N827   1.432       .  S
C821        H826   1.084       .  S
C822        C823   1.415       .  A
C823        N824   1.433       .  S
N824        H828   1.046       .  S
N824        H829   1.046       .  S
N827        H830   1.045       .  S
N827        H831   1.046       .  S
C832        C833   1.405       .  A
C832        C837   1.405       .  A
C832        H839   1.083       .  S
C834        N841   1.438       .  S
C835        C836   1.403       .  A
C836        C837   1.414       .  A
C837        N838   1.438       .  S
C846        C851   1.402       .  A
C846        H853   1.083       .  S
C847        C848   1.414       .  A
C848        C849   1.402       .  A
C848        N855   1.433       .  S
C849        C850   1.406       .  A
C849        H854   1.083       .  S
C851        N852   1.433       .  S
N852        H856   1.046       .  S
N852        H857   1.045       .  S
N855        H858   1.046       .  S
N855        H859   1.046       .  S
C860        C865   1.403       .  A
C860        H867   1.083       .  S
C861        C862   1.415       .  A
C862        C863   1.404       .  A
C862        N869   1.432       .  S
C863        C864   1.407       .  A
C863        H868   1.083       .  S
C865        N866   1.433       .  S
N866        H870   1.045       .  S
N866        H871   1.046       .  S
N869        H872   1.046       .  S
N869        H873   1.046       .  S
