geometry optimzed in LAMMPS
_audit_creation_date              2020-12-01 
_audit_creation_method            'lammps2cif' 
_symmetry_space_group_name_H-M    'P1' 
_symmetry_Int_Tables_number       1 
_symmetry_cell_setting            triclinic 
loop_ 
_symmetry_equiv_pos_as_xyz 
  x,y,z 
_cell_length_a                    40.03551633 
_cell_length_b                    39.63271240950314 
_cell_length_c                    39.24999506419654 
_cell_angle_alpha                 90.38773437166078 
_cell_angle_beta                  108.05955679542073 
_cell_angle_gamma                 93.12001660100859 
loop_ 
_atom_site_label 
_atom_site_type_symbol 
_atom_site_fract_x 
_atom_site_fract_y 
_atom_site_fract_z 
_atom_site_charge 
N1          N  0.23677472  0.16758884  0.44249069    -0.02200
C2          C  0.20460079  0.17704750  0.44198791     0.00400
C3          C  0.17947738  0.16700457  0.41019532    -0.22500
C4          C  0.19686376  0.15114077  0.39006146    -0.22700
C5          C  0.23197824  0.15154596  0.41053680     0.00300
H6          H  0.15133813  0.16912544  0.40334640     0.14100
H7          H  0.18453375  0.13752162  0.36489329     0.14100
N8          N  0.14090062  0.27565813  0.14702558    -0.02200
C9          C  0.16394111  0.30265930  0.15856143     0.00400
C10         C  0.16746042  0.31085122  0.19371457    -0.22500
C11         C  0.14579727  0.28777334  0.20415730    -0.22700
C12         C  0.12895580  0.26674675  0.17469051     0.00300
H13         H  0.18164880  0.33287619  0.20897606     0.14100
H14         H  0.13925571  0.28944144  0.22886591     0.14100
N15         N  0.22878746  0.47340603  0.96428466    -0.02200
C16         C  0.20256607  0.46288085  0.97743645     0.00400
C17         C  0.17657612  0.48582986  0.96951389    -0.22500
C18         C  0.18733299  0.01135842  0.45091961    -0.22700
C19         C  0.21942720  0.00298376  0.44803422     0.00300
H20         H  0.15298515  0.48474775  0.97749124     0.14100
H21         H  0.17347527  0.03374801  0.44099751     0.14100
N22         N  0.44960580  0.31643354  0.05666627    -0.02200
C23         C  0.44602049  0.34734032  0.04158686     0.00400
C24         C  0.47767229  0.36631416  0.05313993    -0.22500
C25         C  0.50148872  0.34636678  0.07572142    -0.22700
C26         C  0.48364372  0.31586404  0.07741367     0.00300
H27         H  0.48245159  0.39251602  0.04753608     0.14100
H28         H  0.52835850  0.35407397  0.09097857     0.14100
N29         N  0.20228388  0.01662481  0.27555502    -0.02200
C30         C  0.20233828  0.49351665  0.24962740     0.00400
C31         C  0.23652747  0.48926485  0.24989860    -0.22500
C32         C  0.25824803  0.00898862  0.27772429    -0.22700
C33         C  0.23667194  0.02464756  0.29355981     0.00300
H34         H  0.24493248  0.47065725  0.23446522     0.14100
H35         H  0.28669979  0.50905583  0.28761665     0.14100
N36         N  0.97972149  0.13694005  0.19072554    -0.02200
C37         C  0.44595719  0.13125195  0.19179581     0.00400
C38         C  0.42223487  0.14240530  0.16083861    -0.22500
C39         C  0.44142636  0.15766043  0.14134446    -0.22700
C40         C  0.97643093  0.15646147  0.16127660     0.00300
H41         H  0.39406093  0.14334681  0.15503832     0.14100
H42         H  0.43072878  0.17359591  0.11870003     0.14100
N43         N  0.39734830  0.03570147  0.40732055    -0.02200
C44         C  0.42184927  0.51322303  0.42263871     0.00400
C45         C  0.41915547  0.50458800  0.45582928    -0.22500
C46         C  0.39214218  0.52201960  0.46082086    -0.22700
C47         C  0.37884991  0.04074454  0.43047615     0.00300
H48         H  0.43310372  0.48531664  0.47306032     0.14100
H49         H  0.38112166  0.51865927  0.48260281     0.14100
N50         N  0.99708397  0.33995505  0.23995211    -0.02200
C51         C  0.47668401  0.34806808  0.26037411     0.00400
C52         C  0.45075910  0.32282607  0.25764856    -0.22500
C53         C  0.45551252  0.29812139  0.23504064    -0.22700
C54         C  0.98441967  0.30895882  0.22499498     0.00300
H55         H  0.43084008  0.32227221  0.27104974     0.14100
H56         H  0.44012201  0.27439133  0.22753554     0.14100
In57       In  0.27479206  0.06415542  0.39684808     1.36900
C58         C  0.24022065  0.02420654  0.43052900     0.78900
O59         O  0.32243912  0.04647866  0.43823461    -0.59600
O60         O  0.32989982  0.06987592  0.39252873    -0.50500
C61         C  0.24977425  0.04012782  0.32971583     0.71500
O62         O  0.23094420  0.04191033  0.34995943    -0.45400
C63         C  0.25464598  0.12564569  0.40429601     0.76200
O64         O  0.26243917  0.01306695  0.41714392    -0.57200
O65         O  0.27768129  0.11239105  0.42930469    -0.47300
O66         O  0.23635500  0.05537926  0.42713188    -0.53600
C67         C  0.34324588  0.05373504  0.42059612     0.86400
O68         O  0.28119092  0.05124442  0.34348351    -0.55500
O69         O  0.24754270  0.11051925  0.37440035    -0.58800
In70       In  0.02406973  0.25075809  0.15943016     1.36900
C71         C  0.99931075  0.28822641  0.20246016     0.78900
O72         O  0.02802855  0.29599155  0.12738800    -0.59600
O73         O  0.48264463  0.26291630  0.10744944    -0.50500
C74         C  0.09275531  0.25281683  0.16978525     0.71500
O75         O  0.07967807  0.25305618  0.19521479    -0.45400
C76         C  0.99896483  0.18727127  0.16070208     0.76200
O77         O  0.03053623  0.29202104  0.20190524    -0.57200
O78         O  0.99799159  0.20190936  0.13195552    -0.47300
O79         O  0.48143589  0.26468775  0.18218333    -0.53600
C80         C  0.49854496  0.29040743  0.10410114     0.86400
O81         O  0.07085777  0.24572145  0.13935874    -0.55500
O82         O  0.01640049  0.20366306  0.18885062    -0.58800
C83         C  0.44345396  0.43662963  0.37776254    -0.00700
C84         C  0.46543221  0.45046702  0.35876015     0.07900
C85         C  0.47551602  0.48515348  0.36297387    -0.06700
C86         C  0.46334837  0.50608978  0.38519175     0.05300
C87         C  0.44009027  0.49236251  0.40291656    -0.13900
C88         C  0.43135817  0.45743599  0.39974820    -0.07300
C89         C  0.47596611  0.42894679  0.33298668     0.06200
C90         C  0.45913254  0.43211748  0.29610463    -0.08400
C91         C  0.46147366  0.40722983  0.27142513     0.01200
C92         C  0.48103626  0.37874456  0.28359818     0.01100
C93         C  0.49986366  0.37683653  0.32016231    -0.11900
C94         C  0.49785485  0.40186015  0.34477271     0.01600
C95         C  0.44156286  0.41014267  0.23411105     0.40900
C96         C  0.51686340  0.39835099  0.38228230     0.37500
C97         C  0.43130588  0.40139241  0.37356149     0.37200
C98         C  0.47545810  0.54127363  0.38974126     0.38000
N99         N  0.42553409  0.41244220  0.20420098    -0.42800
N100        N  0.53202235  0.39566168  0.41237848    -0.43300
N101        N  0.48537248  0.06940846  0.39336709    -0.40600
N102        N  0.42162580  0.37315493  0.37019031    -0.42100
H103        H  0.41342349  0.44656830  0.41308324     0.14100
H104        H  0.49265936  0.49587889  0.34869760     0.10600
H105        H  0.44222791  0.45283820  0.28686122     0.11700
H106        H  0.51468007  0.35483930  0.32977041     0.17500
C107        C  0.38986579  0.09413272  0.24630089    -0.00700
C108        C  0.41176153  0.09998594  0.28198843     0.07900
C109        C  0.44390407  0.11901415  0.28790057    -0.06700
C110        C  0.45451891  0.13147032  0.25925366     0.05300
C111        C  0.43444258  0.12230224  0.22362632    -0.13900
C112        C  0.40160789  0.10454304  0.21774218    -0.07300
C113        C  0.40263982  0.08493975  0.31315080     0.06200
C114        C  0.39204959  0.05031962  0.31175631    -0.08400
C115        C  0.38618029  0.03453633  0.34136009     0.01200
C116        C  0.39363182  0.05263514  0.37406078     0.01100
C117        C  0.40198951  0.08751634  0.37506987    -0.11900
C118        C  0.40593959  0.10388129  0.34486932     0.01600
C119        C  0.37230505  0.99989075  0.33762110     0.40900
C120        C  0.41360741  0.14000131  0.34732708     0.37500
C121        C  0.35496484  0.07795350  0.23814189     0.37200
C122        C  0.98545719  0.15428228  0.26725966     0.38000
N123        N  0.36079199  0.47220430  0.33446634    -0.42800
N124        N  0.41982100  0.16894397  0.34934082    -0.43300
N125        N  0.01012585  0.17276227  0.27371619    -0.40600
N126        N  0.32701671  0.06500331  0.23170091    -0.42100
H127        H  0.38515750  0.09811695  0.19062980     0.14100
H128        H  0.46105301  0.12403236  0.31504166     0.10600
H129        H  0.38907775  0.03523992  0.28774580     0.11700
H130        H  0.40684115  0.10166856  0.40003586     0.17500
C131        C  0.10804805  0.03157327  0.26517892    -0.00700
C132        C  0.10787624  0.06738167  0.26260066     0.07900
C133        C  0.14062363  0.08573803  0.27421382    -0.06700
C134        C  0.17215840  0.06978553  0.27958441     0.05300
C135        C  0.17203825  0.03400160  0.27841021    -0.13900
C136        C  0.14013056  0.01573194  0.27523742    -0.07300
C137        C  0.07512471  0.08616598  0.24526162     0.06200
C138        C  0.04294585  0.07637939  0.25064622    -0.08400
C139        C  0.01123135  0.08975583  0.23045702     0.01200
C140        C  0.01149444  0.11928424  0.20980884     0.01100
C141        C  0.04417409  0.12940496  0.20520878    -0.11900
C142        C  0.07492061  0.11262237  0.22103601     0.01600
C143        C  0.98010637  0.06833865  0.22735518     0.40900
C144        C  0.10521024  0.12236342  0.20986888     0.37500
C145        C  0.07627676  0.00978965  0.25545806     0.37200
C146        C  0.20335726  0.09126703  0.28301760     0.38000
N147        N  0.45617174  0.04976157  0.22525514    -0.42800
N148        N  0.12935236  0.13046024  0.20089930    -0.43300
N149        N  0.22809288  0.10894616  0.28581676    -0.40600
N150        N  0.05101351  0.99202692  0.24797556    -0.42100
H151        H  0.13984648  0.98853511  0.27772522     0.14100
H152        H  0.14152086  0.11310899  0.27595462     0.10600
H153        H  0.04188040  0.05659667  0.26917298     0.11700
H154        H  0.04612504  0.14921789  0.18736619     0.17500
C155        C  0.08151658  0.39283268  0.26150880    -0.00700
C156        C  0.08315203  0.40141017  0.22700658     0.07900
C157        C  0.05508929  0.39027280  0.19681283    -0.06700
C158        C  0.02619508  0.37079289  0.20066091     0.05300
C159        C  0.02592519  0.36057839  0.23497494    -0.13900
C160        C  0.05371879  0.37180643  0.26500718    -0.07300
C161        C  0.11427126  0.42161215  0.22296910     0.06200
C162        C  0.14782111  0.41149954  0.24210563    -0.08400
C163        C  0.17723097  0.43409935  0.24947605     0.01200
C164        C  0.17389035  0.46677477  0.23502084     0.01100
C165        C  0.14159975  0.47473716  0.21056699    -0.11900
C166        C  0.11154877  0.45267612  0.20495263     0.01600
C167        C  0.20941814  0.42437302  0.27536851     0.40900
C168        C  0.07806712  0.46393474  0.18333655     0.37500
C169        C  0.10724161  0.40632889  0.29400252     0.37200
C170        C  0.99631941  0.36311814  0.16936559     0.38000
N171        N  0.23504302  0.41664368  0.29637942    -0.42800
N172        N  0.05125585  0.47308120  0.16600226    -0.43300
N173        N  0.97213751  0.35740632  0.14432778    -0.40600
N174        N  0.12774243  0.41718944  0.32004950    -0.42100
H175        H  0.05351431  0.36434072  0.29142981     0.14100
H176        H  0.05544954  0.39706562  0.17023821     0.10600
H177        H  0.15044112  0.38701364  0.25457674     0.11700
H178        H  0.13908823  0.49953013  0.19880881     0.17500
C179        C  0.35419948  0.37731962  0.02203152    -0.00700
C180        C  0.35169958  0.39874609  0.99298040     0.07900
C181        C  0.37889216  0.40071105  0.97748809    -0.06700
C182        C  0.40906190  0.38249369  0.99156675     0.05300
C183        C  0.41217820  0.36185584  0.02158195    -0.13900
C184        C  0.38421728  0.35916182  0.03605076    -0.07300
C185        C  0.32177055  0.42079582  0.98062797     0.06200
C186        C  0.32267760  0.45082499  0.00014954    -0.08400
C187        C  0.29256825  0.46920911  0.49390366     0.01200
C188        C  0.26091444  0.45711377  0.96840775     0.01100
C189        C  0.26039035  0.42808181  0.94768230    -0.11900
C190        C  0.29073221  0.41011729  0.95326407     0.01600
C191        C  0.29394125  0.49939628  0.51514559     0.40900
C192        C  0.28930443  0.38064979  0.93100914     0.37500
C193        C  0.32692609  0.37509879  0.03900654     0.37200
C194        C  0.43677071  0.38593133  0.97526115     0.38000
N195        N  0.29465317  0.02359127  0.53211103    -0.42800
N196        N  0.28800388  0.35736903  0.91260971    -0.43300
N197        N  0.45916115  0.38874577  0.46243652    -0.40600
N198        N  0.30495902  0.37380809  0.05245347    -0.42100
H199        H  0.38664479  0.34463575  0.05980096     0.14100
H200        H  0.37697866  0.41720552  0.45510878     0.10600
H201        H  0.34653295  0.45913364  0.52121026     0.11700
H202        H  0.23607988  0.41929199  0.92756149     0.17500
C203        C  0.21015840  0.33635423  0.09404594    -0.00700
C204        C  0.19162919  0.36544613  0.08169778     0.07900
C205        C  0.16529022  0.37449861  0.09603074    -0.06700
C206        C  0.15689694  0.35486262  0.12198224     0.05300
C207        C  0.17505774  0.32553978  0.13402790    -0.13900
C208        C  0.20161989  0.31653093  0.11998102    -0.07300
C209        C  0.19819815  0.38670009  0.05323661     0.06200
C210        C  0.17252838  0.38599470  0.01944803    -0.08400
C211        C  0.17473165  0.40933038  0.99350539     0.01200
C212        C  0.20307826  0.43390036  0.00122497     0.01100
C213        C  0.22953833  0.43367658  0.03451522    -0.11900
C214        C  0.22717293  0.41045754  0.06058524     0.01600
C215        C  0.14711349  0.40817517  0.45948499     0.40900
C216        C  0.25320015  0.41312375  0.09560037     0.37500
C217        C  0.23693342  0.32560027  0.07954678     0.37200
C218        C  0.12823799  0.36427171  0.13441982     0.38000
N219        N  0.12497280  0.40727552  0.43223202    -0.42800
N220        N  0.27388151  0.41525800  0.12377580    -0.43300
N221        N  0.10506985  0.37161852  0.14413766    -0.40600
N222        N  0.25814450  0.31645146  0.06781113    -0.42100
H223        H  0.21517963  0.29366459  0.12877586     0.14100
H224        H  0.15087923  0.39675271  0.08645766     0.10600
H225        H  0.15001067  0.36796149  0.01385812     0.11700
H226        H  0.25085281  0.45301682  0.04109747     0.17500
C227        C  0.18164434  0.23693915  0.00548587    -0.00700
C228        C  0.17066228  0.21436743  0.02837654     0.07900
C229        C  0.17182928  0.17942860  0.02266266    -0.06700
C230        C  0.18437951  0.16701562  0.99571415     0.05300
C231        C  0.19565717  0.18964029  0.47340573    -0.13900
C232        C  0.19407189  0.22440492  0.97842199    -0.07300
C233        C  0.15889310  0.22647738  0.05887620     0.06200
C234        C  0.13226245  0.24961619  0.05280178    -0.08400
C235        C  0.12352111  0.26406108  0.08148727     0.01200
C236        C  0.14068410  0.25468839  0.11685038     0.01100
C237        C  0.16511757  0.22967799  0.12269913    -0.11900
C238        C  0.17460711  0.21580694  0.09434940     0.01600
C239        C  0.09804477  0.28954394  0.07439581     0.40900
C240        C  0.20240950  0.19253846  0.10295645     0.37500
C241        C  0.17988576  0.27303252  0.00843482     0.37200
C242        C  0.18488988  0.13088254  0.49100067     0.38000
N243        N  0.07757162  0.30998023  0.06863439    -0.42800
N244        N  0.22456579  0.17376445  0.10988178    -0.43300
N245        N  0.18533210  0.10193966  0.48723287    -0.40600
N246        N  0.17790004  0.30198599  0.00980183    -0.42100
H247        H  0.20188678  0.24176802  0.96063874     0.14100
H248        H  0.16268854  0.16170136  0.03921781     0.10600
H249        H  0.11904676  0.25725031  0.02571557     0.11700
H250        H  0.17894444  0.22306862  0.15001126     0.17500
C251        C  0.39180666  0.24812755  0.49825816    -0.00700
C252        C  0.36766651  0.24010175  0.01710884     0.07900
C253        C  0.37438086  0.25360141  0.05193603    -0.06700
C254        C  0.40291506  0.27710683  0.06664656     0.05300
C255        C  0.42442884  0.28796635  0.04590431    -0.13900
C256        C  0.41946311  0.27237384  0.51246028    -0.07300
C257        C  0.33328955  0.22151882  0.49897544     0.06200
C258        C  0.32433585  0.19031800  0.51174547    -0.08400
C259        C  0.29232551  0.17227676  0.49382509     0.01200
C260        C  0.26918462  0.18541214  0.46270917     0.01100
C261        C  0.27760360  0.21700552  0.45080719    -0.11900
C262        C  0.30903894  0.23522796  0.46878459     0.01600
C263        C  0.28353717  0.14055057  0.50761097     0.40900
C264        C  0.31568281  0.26826893  0.45612067     0.37500
C265        C  0.38797729  0.23261163  0.46374606     0.37200
C266        C  0.40863565  0.29082471  0.10225323     0.38000
N267        N  0.27640592  0.11511042  0.51869763    -0.42800
N268        N  0.32148183  0.29470711  0.44621859    -0.43300
N269        N  0.41299536  0.30151065  0.13091127    -0.40600
N270        N  0.38491511  0.22015871  0.43610650    -0.42900
H271        H  0.43668818  0.28004848  0.49701090     0.14100
H272        H  0.35637766  0.24706305  0.06689031     0.10600
H273        H  0.34246220  0.17995367  0.03537323     0.11700
H274        H  0.25930817  0.22739074  0.42730180     0.17500
N275        N  0.23677472  0.16758867  0.94248993    -0.02200
C276        C  0.20460083  0.17704752  0.94198700     0.00400
C277        C  0.17947740  0.16700546  0.91019397    -0.22500
C278        C  0.19686405  0.15114176  0.89006013    -0.22700
C279        C  0.23197838  0.15154639  0.91053577     0.00300
H280        H  0.15133927  0.16912674  0.90334511     0.14100
H281        H  0.18453404  0.13752316  0.86489148     0.14100
N282        N  0.14090064  0.27565991  0.64702584    -0.02200
C283        C  0.16394045  0.30266131  0.65856104     0.00400
C284        C  0.16745957  0.31085419  0.69371443    -0.22500
C285        C  0.14579629  0.28777601  0.70415682    -0.22700
C286        C  0.12895548  0.26674900  0.67469093     0.00300
H287        H  0.18164504  0.33287636  0.70897252     0.14100
H288        H  0.13925387  0.28944492  0.72886852     0.14100
N289        N  0.22878618  0.47340621  0.46428219    -0.02200
C290        C  0.20256472  0.46288121  0.47743383     0.00400
C291        C  0.17657422  0.48582993  0.46951092    -0.22500
C292        C  0.18733076  0.01135801  0.95091649    -0.22700
C293        C  0.21942574  0.00298362  0.94803203     0.00300
H294        H  0.15298599  0.48474832  0.47748686     0.14100
H295        H  0.17347420  0.03374505  0.94099503     0.14100
N296        N  0.44960518  0.31643510  0.55666662    -0.02200
C297        C  0.44602003  0.34734197  0.54158702     0.00400
C298        C  0.47767199  0.36631530  0.55313959    -0.22500
C299        C  0.50148814  0.34636799  0.57572056    -0.22700
C300        C  0.48364336  0.31586543  0.57741352     0.00300
H301        H  0.48245159  0.39251945  0.54753441     0.14100
H302        H  0.52836050  0.35407541  0.59097878     0.14100
N303        N  0.20228270  0.01662454  0.77555356    -0.02200
C304        C  0.20233897  0.49351731  0.74962911     0.00400
C305        C  0.23652821  0.48926584  0.74990044    -0.22500
C306        C  0.25824681  0.00898849  0.77772271    -0.22700
C307        C  0.23667070  0.02464748  0.79355815     0.00300
H308        H  0.24493325  0.47065792  0.73446591     0.14100
H309        H  0.28670249  0.50905728  0.78761874     0.14100
N310        N  0.97972087  0.13694079  0.69072431    -0.02200
C311        C  0.44595648  0.13125334  0.69179461     0.00400
C312        C  0.42223429  0.14240696  0.66083739    -0.22500
C313        C  0.44142592  0.15766196  0.64134377    -0.22700
C314        C  0.97643049  0.15646246  0.66127559     0.00300
H315        H  0.39405998  0.14334834  0.65503722     0.14100
H316        H  0.43072700  0.17359983  0.61869661     0.14100
N317        N  0.39734721  0.03570121  0.90731894    -0.02200
C318        C  0.42184996  0.51322377  0.92263949     0.00400
C319        C  0.41915685  0.50458875  0.95583015    -0.22500
C320        C  0.39214326  0.52202033  0.96082259    -0.22700
C321        C  0.37884883  0.04074451  0.93047431     0.00300
H322        H  0.43310477  0.48531789  0.97306113     0.14100
H323        H  0.38112555  0.51866060  0.98260038     0.14100
N324        N  0.99708419  0.33995622  0.73995242    -0.02200
C325        C  0.47668406  0.34806931  0.76037432     0.00400
C326        C  0.45075933  0.32282735  0.75764852    -0.22500
C327        C  0.45551264  0.29812246  0.73504084    -0.22700
C328        C  0.98442005  0.30896002  0.72499538     0.00300
H329        H  0.43083881  0.32227312  0.77105077     0.14100
H330        H  0.44012293  0.27439395  0.72753563     0.14100
In331      In  0.27479096  0.06415552  0.89684629     1.36900
C332        C  0.24021900  0.02420666  0.93052674     0.78900
O333        O  0.32243806  0.04647886  0.93823288    -0.59600
O334        O  0.32989862  0.06987579  0.89252687    -0.50500
C335        C  0.24977316  0.04012789  0.82971413     0.71500
O336        O  0.23094290  0.04191090  0.84995751    -0.45400
C337        C  0.25464575  0.12564585  0.90429493     0.76200
O338        O  0.26243835  0.01306720  0.91714261    -0.57200
O339        O  0.27768062  0.11239068  0.92930359    -0.47300
O340        O  0.23635284  0.05537922  0.92712897    -0.53600
C341        C  0.34324474  0.05373495  0.92059432     0.86400
O342        O  0.28118994  0.05124409  0.84348190    -0.55500
O343        O  0.24754267  0.11051997  0.87439900    -0.58800
In344      In  0.02406966  0.25075911  0.65943008     1.36900
C345        C  0.99931106  0.28822748  0.70246051     0.78900
O346        O  0.02802885  0.29599174  0.62738679    -0.59600
O347        O  0.48264348  0.26291823  0.60745004    -0.50500
C348        C  0.09275529  0.25281846  0.66978554     0.71500
O349        O  0.07967788  0.25305777  0.69521497    -0.45400
C350        C  0.99896472  0.18727213  0.66070136     0.76200
O351        O  0.03053626  0.29202248  0.70190493    -0.57200
O352        O  0.99799149  0.20191056  0.63195498    -0.47300
O353        O  0.48143633  0.26468849  0.68218406    -0.53600
C354        C  0.49854445  0.29040864  0.60410077     0.86400
O355        O  0.07085799  0.24572260  0.63935905    -0.55500
O356        O  0.01640070  0.20366348  0.68885006    -0.58800
C357        C  0.44345461  0.43663048  0.87776320    -0.00700
C358        C  0.46543243  0.45046804  0.85876031     0.07900
C359        C  0.47551588  0.48515445  0.86297406    -0.06700
C360        C  0.46334847  0.50609076  0.88519193     0.05300
C361        C  0.44009069  0.49236334  0.90291710    -0.13900
C362        C  0.43135886  0.45743677  0.89974894    -0.07300
C363        C  0.47596611  0.42894793  0.83298680     0.06200
C364        C  0.45913261  0.43211836  0.79610505    -0.08400
C365        C  0.46147337  0.40723108  0.77142537     0.01200
C366        C  0.48103634  0.37874577  0.78359839     0.01100
C367        C  0.49986377  0.37683790  0.82016241    -0.11900
C368        C  0.49785509  0.40186127  0.84477282     0.01600
C369        C  0.44156246  0.41014367  0.73411124     0.40900
C370        C  0.51686385  0.39835218  0.88228236     0.37500
C371        C  0.43130665  0.40139327  0.87356242     0.37200
C372        C  0.47545786  0.54127477  0.88974121     0.38000
N373        N  0.42553339  0.41244313  0.70420128    -0.42800
N374        N  0.53202298  0.39566284  0.91237847    -0.43300
N375        N  0.48537219  0.06940747  0.89336672    -0.40600
N376        N  0.42162685  0.37315568  0.87019133    -0.42100
H377        H  0.41342446  0.44656911  0.91308404     0.14100
H378        H  0.49265987  0.49588067  0.84869652     0.10600
H379        H  0.44222606  0.45284114  0.78686098     0.11700
H380        H  0.51468071  0.35483976  0.82977102     0.17500
C381        C  0.38986553  0.09413383  0.74630028    -0.00700
C382        C  0.41176132  0.09998695  0.78198756     0.07900
C383        C  0.44390388  0.11901538  0.78789980    -0.06700
C384        C  0.45451846  0.13147165  0.75925252     0.05300
C385        C  0.43444211  0.12230367  0.72362545    -0.13900
C386        C  0.40160717  0.10454433  0.71774096    -0.07300
C387        C  0.40263984  0.08494036  0.81315004     0.06200
C388        C  0.39204942  0.05032029  0.81175517    -0.08400
C389        C  0.38617987  0.03453675  0.84135871     0.01200
C390        C  0.39363121  0.05263552  0.87405971     0.01100
C391        C  0.40198920  0.08751626  0.87506872    -0.11900
C392        C  0.40593963  0.10388178  0.84486896     0.01600
C393        C  0.37230432  0.99989142  0.83761910     0.40900
C394        C  0.41360779  0.14000148  0.84732695     0.37500
C395        C  0.35496468  0.07795449  0.73814110     0.37200
C396        C  0.98545649  0.15428336  0.76725834     0.38000
N397        N  0.36079202  0.47220439  0.83446769    -0.42800
N398        N  0.41982178  0.16894421  0.84934127    -0.43300
N399        N  0.01012507  0.17276355  0.77371473    -0.40600
N400        N  0.32701646  0.06500407  0.73170003    -0.42100
H401        H  0.38515853  0.09811915  0.69063203     0.14100
H402        H  0.46105207  0.12403330  0.81503949     0.10600
H403        H  0.38907792  0.03524074  0.78774497     0.11700
H404        H  0.40684121  0.10167072  0.90003873     0.17500
C405        C  0.10804678  0.03157290  0.76517735    -0.00700
C406        C  0.10787492  0.06738106  0.76259884     0.07900
C407        C  0.14062234  0.08573800  0.77421189    -0.06700
C408        C  0.17215718  0.06978504  0.77958259     0.05300
C409        C  0.17203704  0.03400137  0.77840857    -0.13900
C410        C  0.14012939  0.01573148  0.77523592    -0.07300
C411        C  0.07512350  0.08616548  0.74525971     0.06200
C412        C  0.04294462  0.07637952  0.75064427    -0.08400
C413        C  0.01123027  0.08975611  0.73045567     0.01200
C414        C  0.01149354  0.11928440  0.70980740     0.01100
C415        C  0.04417321  0.12940482  0.70520685    -0.11900
C416        C  0.07491952  0.11262169  0.72103399     0.01600
C417        C  0.98010521  0.06833925  0.72735388     0.40900
C418        C  0.10520915  0.12236218  0.70986625     0.37500
C419        C  0.07627556  0.00978927  0.75545657     0.37200
C420        C  0.20335576  0.09126683  0.78301551     0.38000
N421        N  0.45617051  0.04976281  0.72525446    -0.42800
N422        N  0.12935112  0.13045851  0.70089641    -0.43300
N423        N  0.22809142  0.10894599  0.78581462    -0.40600
N424        N  0.05101219  0.99202675  0.74797423    -0.42100
H425        H  0.13984541  0.98853563  0.77772392     0.14100
H426        H  0.14151951  0.11310540  0.77595259     0.10600
H427        H  0.04187906  0.05659502  0.76917242     0.11700
H428        H  0.04612423  0.14921629  0.68736549     0.17500
C429        C  0.08151690  0.39283361  0.76150953    -0.00700
C430        C  0.08315239  0.40141123  0.72700762     0.07900
C431        C  0.05508975  0.39027405  0.69681314    -0.06700
C432        C  0.02619544  0.37079396  0.70066164     0.05300
C433        C  0.02592532  0.36057948  0.73497536    -0.13900
C434        C  0.05371892  0.37180745  0.76500770    -0.07300
C435        C  0.11427167  0.42161296  0.72296983     0.06200
C436        C  0.14782140  0.41150030  0.74210604    -0.08400
C437        C  0.17723145  0.43409984  0.74947678     0.01200
C438        C  0.17389096  0.46677555  0.73502204     0.01100
C439        C  0.14160036  0.47473821  0.71056848    -0.11900
C440        C  0.11154929  0.45267721  0.70495377     0.01600
C441        C  0.20941868  0.42437312  0.77536851     0.40900
C442        C  0.07806782  0.46393616  0.68333796     0.37500
C443        C  0.10724175  0.40632982  0.79400304     0.37200
C444        C  0.99631989  0.36311928  0.66936586     0.38000
N445        N  0.23504383  0.41664347  0.79637902    -0.42800
N446        N  0.05125649  0.47308287  0.66600375    -0.43300
N447        N  0.97213822  0.35740744  0.64432799    -0.40600
N448        N  0.12774269  0.41719035  0.82005014    -0.42100
H449        H  0.05351396  0.36434205  0.79143044     0.14100
H450        H  0.05544992  0.39706603  0.67024308     0.10600
H451        H  0.15044136  0.38701302  0.75457740     0.11700
H452        H  0.13908889  0.49953122  0.69881048     0.17500
C453        C  0.35419919  0.37732178  0.52203232    -0.00700
C454        C  0.35169883  0.39874729  0.49298044     0.07900
C455        C  0.37889108  0.40071161  0.47748751    -0.06700
C456        C  0.40906103  0.38249439  0.49156654     0.05300
C457        C  0.41217763  0.36185733  0.52158231    -0.13900
C458        C  0.38421714  0.35916423  0.53605174    -0.07300
C459        C  0.32176967  0.42079679  0.48062737     0.06200
C460        C  0.32267619  0.45082630  0.50014762    -0.08400
C461        C  0.29256947  0.46920804  0.99390575     0.01200
C462        C  0.26091302  0.45711401  0.46840565     0.01100
C463        C  0.26038965  0.42808174  0.44768168    -0.11900
C464        C  0.29073107  0.41011728  0.45326352     0.01600
C465        C  0.29394280  0.49939441  0.01514903     0.40900
C466        C  0.28930389  0.38064956  0.43100951     0.37500
C467        C  0.32692618  0.37510185  0.53900784     0.37200
C468        C  0.43676940  0.38593125  0.47526053     0.38000
N469        N  0.29465221  0.02359440  0.03210701    -0.42800
N470        N  0.28800348  0.35736824  0.41261054    -0.43300
N471        N  0.45916261  0.38874638  0.96243766    -0.40600
N472        N  0.30495951  0.37381173  0.55245521    -0.42100
H473        H  0.38664507  0.34463858  0.55980282     0.14100
H474        H  0.37697986  0.41720622  0.95510883     0.10600
H475        H  0.34653205  0.45913080  0.02121059     0.11700
H476        H  0.23607543  0.41928968  0.42755853     0.17500
C477        C  0.21015783  0.33635579  0.59404532    -0.00700
C478        C  0.19162832  0.36544776  0.58169664     0.07900
C479        C  0.16528957  0.37449987  0.59602959    -0.06700
C480        C  0.15689621  0.35486461  0.62198120     0.05300
C481        C  0.17505730  0.32554170  0.63402746    -0.13900
C482        C  0.20161934  0.31653305  0.61998058    -0.07300
C483        C  0.19819730  0.38670139  0.55323523     0.06200
C484        C  0.17252787  0.38599521  0.51944638    -0.08400
C485        C  0.17473106  0.40933062  0.49350349     0.01200
C486        C  0.20307719  0.43390152  0.50122324     0.01100
C487        C  0.22953652  0.43367817  0.53451359    -0.11900
C488        C  0.22717167  0.41045971  0.56058393     0.01600
C489        C  0.14711369  0.40817594  0.95948722     0.40900
C490        C  0.25319829  0.41312647  0.59559926     0.37500
C491        C  0.23693324  0.32560210  0.57954655     0.37200
C492        C  0.12823739  0.36427380  0.63441890     0.38000
N493        N  0.12497257  0.40727724  0.93223469    -0.42800
N494        N  0.27387929  0.41526143  0.62377487    -0.43300
N495        N  0.10506933  0.37162060  0.64413681    -0.40600
N496        N  0.25814455  0.31645329  0.56781123    -0.42100
H497        H  0.21518043  0.29366506  0.62877654     0.14100
H498        H  0.15087656  0.39675632  0.58645476     0.10600
H499        H  0.15001043  0.36796180  0.51385644     0.11700
H500        H  0.25085358  0.45302189  0.54109689     0.17500
C501        C  0.18164457  0.23693980  0.50548628    -0.00700
C502        C  0.17066252  0.21436819  0.52837735     0.07900
C503        C  0.17182981  0.17942962  0.52266372    -0.06700
C504        C  0.18437986  0.16701606  0.49571559     0.05300
C505        C  0.19565693  0.18963993  0.97340480    -0.13900
C506        C  0.19407192  0.22440511  0.47842268    -0.07300
C507        C  0.15889332  0.22647862  0.55887675     0.06200
C508        C  0.13226268  0.24961722  0.55280237    -0.08400
C509        C  0.12352133  0.26406243  0.58148755     0.01200
C510        C  0.14068436  0.25468990  0.61685094     0.01100
C511        C  0.16511792  0.22967983  0.62269964    -0.11900
C512        C  0.17460749  0.21580841  0.59435026     0.01600
C513        C  0.09804488  0.28954530  0.57439593     0.40900
C514        C  0.20241013  0.19254025  0.60295739     0.37500
C515        C  0.17988597  0.27303327  0.50843502     0.37200
C516        C  0.18488901  0.13088195  0.99099875     0.38000
N517        N  0.07757184  0.30998163  0.56863435    -0.42800
N518        N  0.22456653  0.17376633  0.60988284    -0.43300
N519        N  0.18533102  0.10193918  0.98723044    -0.40600
N520        N  0.17790041  0.30198668  0.50980177    -0.42100
H521        H  0.20188764  0.24176926  0.46063827     0.14100
H522        H  0.16268867  0.16170080  0.53922120     0.10600
H523        H  0.11904605  0.25725144  0.52571462     0.11700
H524        H  0.17894576  0.22307008  0.65001378     0.17500
C525        C  0.39180680  0.24812683  0.99825706    -0.00700
C526        C  0.36766601  0.24010301  0.51710950     0.07900
C527        C  0.37437971  0.25360341  0.55193636    -0.06700
C528        C  0.40291391  0.27710889  0.56664679     0.05300
C529        C  0.42442811  0.28796798  0.54590488    -0.13900
C530        C  0.41946329  0.27237293  0.01245949    -0.07300
C531        C  0.33328988  0.22151781  0.99897489     0.06200
C532        C  0.32433614  0.19031680  0.01174430    -0.08400
C533        C  0.29232576  0.17227591  0.99382422     0.01200
C534        C  0.26918455  0.18541189  0.96270851     0.01100
C535        C  0.27760370  0.21700539  0.95080731    -0.11900
C536        C  0.30903888  0.23522758  0.96878442     0.01600
C537        C  0.28353718  0.14054947  0.00760968     0.40900
C538        C  0.31568271  0.26826904  0.95612137     0.37500
C539        C  0.38797684  0.23261179  0.96374461     0.37200
C540        C  0.40863419  0.29082736  0.60225343     0.38000
N541        N  0.27640574  0.11510935  0.01869606    -0.42800
N542        N  0.32148140  0.29470743  0.94621992    -0.43300
N543        N  0.41299393  0.30151363  0.63091112    -0.40600
N544        N  0.38491412  0.22015949  0.93610445    -0.42900
H545        H  0.43668874  0.28004827  0.99700938     0.14100
H546        H  0.35637650  0.24706509  0.56689014     0.10600
H547        H  0.34246077  0.17995578  0.53537334     0.11700
H548        H  0.25930634  0.22739203  0.92730017     0.17500
N549        N  0.23675157  0.66756806  0.44248987    -0.02200
C550        C  0.20457713  0.67702595  0.44198608     0.00400
C551        C  0.17945463  0.66698090  0.41019374    -0.22500
C552        C  0.19684248  0.65111605  0.39006142    -0.22700
C553        C  0.23195717  0.65152375  0.41053705     0.00300
H554        H  0.15131593  0.66910289  0.40334305     0.14100
H555        H  0.18451399  0.63749752  0.36489345     0.14100
N556        N  0.14084826  0.77568149  0.14699454    -0.02200
C557        C  0.16386083  0.80270580  0.15850844     0.00400
C558        C  0.16736627  0.81092344  0.19365226    -0.22500
C559        C  0.14572478  0.78783632  0.20411312    -0.22700
C560        C  0.12890866  0.76677829  0.17466528     0.00300
H561        H  0.18153090  0.83296693  0.20889374     0.14100
H562        H  0.13917747  0.78951501  0.22881864     0.14100
N563        N  0.22872813  0.97339786  0.96421287    -0.02200
C564        C  0.20248995  0.96286009  0.97733399     0.00400
C565        C  0.17648086  0.98578907  0.96937067    -0.22500
C566        C  0.18741709  0.51139604  0.45104839    -0.22700
C567        C  0.21948860  0.50300095  0.44811854     0.00300
H568        H  0.15287325  0.98469432  0.97731849     0.14100
H569        H  0.17357003  0.53379178  0.44114847     0.14100
N570        N  0.44956086  0.81643619  0.05669861    -0.02200
C571        C  0.44598207  0.84734243  0.04162155     0.00400
C572        C  0.47764940  0.86629345  0.05313155    -0.22500
C573        C  0.50147037  0.84632905  0.07568385    -0.22700
C574        C  0.48361145  0.81583988  0.07739916     0.00300
H575        H  0.48243976  0.89249032  0.04751339     0.14100
H576        H  0.52835675  0.85401705  0.09090858     0.14100
N577        N  0.20230697  0.51661726  0.27556285    -0.02200
C578        C  0.20230914  0.99351728  0.24962331     0.00400
C579        C  0.23649716  0.98925392  0.24989746    -0.22500
C580        C  0.25827378  0.50900056  0.27772824    -0.22700
C581        C  0.23669331  0.52464731  0.29356806     0.00300
H582        H  0.24489771  0.97063781  0.23446649     0.14100
H583        H  0.28667571  0.00903683  0.28761464     0.14100
N584        N  0.97971284  0.63689585  0.19069681    -0.02200
C585        C  0.44594948  0.63120905  0.19177222     0.00400
C586        C  0.42222406  0.64237472  0.16082476    -0.22500
C587        C  0.44141127  0.65763532  0.14133057    -0.22700
C588        C  0.97641875  0.65642679  0.16125358     0.00300
H589        H  0.39404753  0.64332090  0.15503267     0.14100
H590        H  0.43071167  0.67358010  0.11869311     0.14100
N591        N  0.39737516  0.53572139  0.40733507    -0.02200
C592        C  0.42180860  0.01318831  0.42261986     0.00400
C593        C  0.41910616  0.00454990  0.45580620    -0.22500
C594        C  0.39210231  0.02199393  0.46080079    -0.22700
C595        C  0.37887681  0.54076018  0.43049128     0.00300
H596        H  0.43304466  0.98527064  0.47303466     0.14100
H597        H  0.38107842  0.01863592  0.48257914     0.14100
N598        N  0.99704314  0.83995052  0.23990445    -0.02200
C599        C  0.47663321  0.84807048  0.26031391     0.00400
C600        C  0.45069930  0.82283520  0.25757665    -0.22500
C601        C  0.45545613  0.79812735  0.23497461    -0.22700
C602        C  0.98437528  0.80895559  0.22494485     0.00300
H603        H  0.43077298  0.82228592  0.27097050     0.14100
H604        H  0.44006148  0.77440128  0.22746482     0.14100
In605      In  0.27480803  0.56414699  0.39686244     1.36900
C606        C  0.24026370  0.52421264  0.43058368     0.78900
O607        O  0.32245415  0.54644967  0.43823393    -0.59600
O608        O  0.32992258  0.56989939  0.39255835    -0.50500
C609        C  0.24979277  0.54012190  0.32972737     0.71500
O610        O  0.23096428  0.54188999  0.34997442    -0.45400
C611        C  0.25463165  0.62562960  0.40429439     0.76200
O612        O  0.26243717  0.51305743  0.41714599    -0.57200
O613        O  0.27769175  0.61239680  0.42929855    -0.47300
O614        O  0.23642600  0.55539139  0.42721329    -0.53600
C615        C  0.34326645  0.55373647  0.42061028     0.86400
O616        O  0.28120649  0.55124756  0.34349454    -0.55500
O617        O  0.24751576  0.61048733  0.37440601    -0.58800
In618      In  0.02403809  0.75073158  0.15940903     1.36900
C619        C  0.99927275  0.78821426  0.20242284     0.78900
O620        O  0.02802529  0.79592965  0.12732484    -0.59600
O621        O  0.48258619  0.76291185  0.10745845    -0.50500
C622        C  0.09272029  0.75281970  0.16976827     0.71500
O623        O  0.07964238  0.75306163  0.19519788    -0.45400
C624        C  0.99895378  0.68723644  0.16068185     0.76200
O625        O  0.03050317  0.79199852  0.20188129    -0.57200
O626        O  0.99797845  0.70187663  0.13193597    -0.47300
O627        O  0.48139764  0.76467674  0.18214394    -0.53600
C628        C  0.49851389  0.79037573  0.10407584     0.86400
O629        O  0.07082821  0.74570052  0.13934404    -0.55500
O630        O  0.01638628  0.70362924  0.18883073    -0.58800
C631        C  0.44343493  0.93659491  0.37775611    -0.00700
C632        C  0.46540447  0.95043720  0.35874650     0.07900
C633        C  0.47548086  0.98512549  0.36295762    -0.06700
C634        C  0.46331184  0.00605878  0.38517708     0.05300
C635        C  0.44005387  0.99232888  0.40290030    -0.13900
C636        C  0.43133190  0.95740018  0.39973764    -0.07300
C637        C  0.47593219  0.92892276  0.33296337     0.06200
C638        C  0.45910184  0.93210972  0.29608284    -0.08400
C639        C  0.46143922  0.90723242  0.27139124     0.01200
C640        C  0.48099309  0.87873917  0.28355081     0.01100
C641        C  0.49981717  0.87681431  0.32011393    -0.11900
C642        C  0.49781539  0.90182940  0.34473578     0.01600
C643        C  0.44153734  0.91016502  0.23407707     0.40900
C644        C  0.51682897  0.89830578  0.38224191     0.37500
C645        C  0.43130438  0.90135317  0.37356797     0.37200
C646        C  0.47542323  0.04124203  0.38973286     0.38000
N647        N  0.42551708  0.91248060  0.20416693    -0.42800
N648        N  0.53199379  0.89560314  0.41233446    -0.43300
N649        N  0.48540642  0.56944032  0.39336804    -0.40600
N650        N  0.42164121  0.87311099  0.37020903    -0.42100
H651        H  0.41340121  0.94652868  0.41307597     0.14100
H652        H  0.49261914  0.99585380  0.34868007     0.10600
H653        H  0.44220163  0.95283888  0.28684802     0.11700
H654        H  0.51462747  0.85481087  0.32971170     0.17500
C655        C  0.38986964  0.59408867  0.24628706    -0.00700
C656        C  0.41176722  0.59994834  0.28197262     0.07900
C657        C  0.44391091  0.61897326  0.28787980    -0.06700
C658        C  0.45452167  0.63142633  0.25922976     0.05300
C659        C  0.43444212  0.62225544  0.22360505    -0.13900
C660        C  0.40160884  0.60449437  0.21772480    -0.07300
C661        C  0.40264455  0.58491765  0.31314060     0.06200
C662        C  0.39205032  0.55029963  0.31176019    -0.08400
C663        C  0.38618548  0.53453052  0.34137297     0.01200
C664        C  0.39364435  0.55264247  0.37406706     0.01100
C665        C  0.40200378  0.58752153  0.37506074    -0.11900
C666        C  0.40595004  0.60387271  0.34485248     0.01600
C667        C  0.37230951  0.49988557  0.33765103     0.40900
C668        C  0.41362337  0.63999158  0.34729535     0.37500
C669        C  0.35496846  0.57791110  0.23813302     0.37200
C670        C  0.98545707  0.65424217  0.26723069     0.38000
N671        N  0.36078854  0.97220897  0.33442319    -0.42800
N672        N  0.41984264  0.66893346  0.34929734    -0.43300
N673        N  0.01012203  0.67272657  0.27368224    -0.40600
N674        N  0.32701983  0.56496246  0.23169601    -0.42100
H675        H  0.38515836  0.59806702  0.19061614     0.14100
H676        H  0.46106118  0.62399423  0.31501796     0.10600
H677        H  0.38907468  0.53521045  0.28775586     0.11700
H678        H  0.40686311  0.60168576  0.40002712     0.17500
C679        C  0.10806405  0.53154157  0.26517978    -0.00700
C680        C  0.10787890  0.56734783  0.26257374     0.07900
C681        C  0.14062096  0.58571493  0.27417973    -0.06700
C682        C  0.17216387  0.56977065  0.27957279     0.05300
C683        C  0.17205582  0.53398766  0.27841326    -0.13900
C684        C  0.14015329  0.51571064  0.27524597    -0.07300
C685        C  0.07512018  0.58612009  0.24522235     0.06200
C686        C  0.04294299  0.57633486  0.25061121    -0.08400
C687        C  0.01122669  0.58970957  0.23042402     0.01200
C688        C  0.01148643  0.61923676  0.20977214     0.01100
C689        C  0.04416258  0.62935246  0.20516234    -0.11900
C690        C  0.07491003  0.61256993  0.22098678     0.01600
C691        C  0.98010332  0.56829224  0.22732834     0.40900
C692        C  0.10519479  0.62230360  0.20980879     0.37500
C693        C  0.07630048  0.50974773  0.25548948     0.37200
C694        C  0.20336190  0.59125853  0.28302237     0.38000
N695        N  0.45617053  0.54971446  0.22523341    -0.42800
N696        N  0.12933240  0.63039470  0.20082956    -0.43300
N697        N  0.22809746  0.60894260  0.28583755    -0.40600
N698        N  0.05104515  0.49197525  0.24803528    -0.42100
H699        H  0.13987962  0.48851562  0.27774634     0.14100
H700        H  0.14150867  0.61308557  0.27590451     0.10600
H701        H  0.04187975  0.55655586  0.26914550     0.11700
H702        H  0.04610892  0.64916659  0.18731219     0.17500
C703        C  0.08146114  0.89285372  0.26146924    -0.00700
C704        C  0.08311017  0.90141523  0.22696871     0.07900
C705        C  0.05505917  0.89026311  0.19677114    -0.06700
C706        C  0.02616607  0.87077785  0.20061561     0.05300
C707        C  0.02588727  0.86057240  0.23493000    -0.13900
C708        C  0.05366879  0.87181833  0.26496550    -0.07300
C709        C  0.11423346  0.92161552  0.22293985     0.06200
C710        C  0.14777936  0.91150458  0.24209101    -0.08400
C711        C  0.17718953  0.93410484  0.24947452     0.01200
C712        C  0.17385515  0.96678000  0.23501796     0.01100
C713        C  0.14156891  0.97474385  0.21055566    -0.11900
C714        C  0.11151673  0.95268094  0.20492759     0.01600
C715        C  0.20936866  0.92437981  0.27538073     0.40900
C716        C  0.07803824  0.96393681  0.18330064     0.37500
C717        C  0.10716234  0.90638337  0.29396178     0.37200
C718        C  0.99629715  0.86309409  0.16931635     0.38000
N719        N  0.23498711  0.91665186  0.29640303    -0.42800
N720        N  0.05122798  0.97307877  0.16595762    -0.43300
N721        N  0.97211865  0.85737544  0.14427702    -0.40600
N722        N  0.12764276  0.91727523  0.32000603    -0.42100
H723        H  0.05345784  0.86436300  0.29138705     0.14100
H724        H  0.05542538  0.89705177  0.17019924     0.10600
H725        H  0.15039393  0.88701797  0.25456609     0.11700
H726        H  0.13906173  0.99953515  0.19879793     0.17500
C727        C  0.35419444  0.87738571  0.02213977    -0.00700
C728        C  0.35166372  0.89875837  0.99304008     0.07900
C729        C  0.37882451  0.90066874  0.97750277    -0.06700
C730        C  0.40899492  0.88245386  0.99158298     0.05300
C731        C  0.41214063  0.86186856  0.02164008    -0.13900
C732        C  0.38421153  0.85922602  0.03615709    -0.07300
C733        C  0.32173185  0.92080188  0.98066837     0.06200
C734        C  0.32260814  0.95082030  0.00019608    -0.08400
C735        C  0.29249834  0.96920334  0.49391186     0.01200
C736        C  0.26086699  0.95711712  0.96836989     0.01100
C737        C  0.26037656  0.92809844  0.94763767    -0.11900
C738        C  0.29072555  0.91013820  0.95325517     0.01600
C739        C  0.29384365  0.99938923  0.51514607     0.40900
C740        C  0.28933819  0.88069275  0.93098332     0.37500
C741        C  0.32694980  0.87521284  0.03915477     0.37200
C742        C  0.43667402  0.88583580  0.97523366     0.38000
N743        N  0.29477175  0.52359771  0.53211896    -0.42800
N744        N  0.28807257  0.85743160  0.91256913    -0.43300
N745        N  0.45904573  0.88860495  0.46237762    -0.40600
N746        N  0.30500676  0.87395829  0.05263393    -0.42100
H747        H  0.38666411  0.84473540  0.05993443     0.14100
H748        H  0.37688895  0.91711961  0.45508727     0.10600
H749        H  0.34644432  0.95911821  0.52129092     0.11700
H750        H  0.23608629  0.91931612  0.92748178     0.17500
C751        C  0.21009359  0.83638823  0.09400287    -0.00700
C752        C  0.19153588  0.86545517  0.08161249     0.07900
C753        C  0.16516603  0.87449289  0.09590737    -0.06700
C754        C  0.15677338  0.85486874  0.12186674     0.05300
C755        C  0.17496654  0.82557315  0.13395863    -0.13900
C756        C  0.20155588  0.81657671  0.11994593    -0.07300
C757        C  0.19811678  0.88670452  0.05315496     0.06200
C758        C  0.17248002  0.88595952  0.01934383    -0.08400
C759        C  0.17469067  0.90928726  0.99339636     0.01200
C760        C  0.20300527  0.93389250  0.00113749     0.01100
C761        C  0.22943175  0.93371072  0.03445337    -0.11900
C762        C  0.22706389  0.91049574  0.06052492     0.01600
C763        C  0.14711568  0.90808442  0.45934742     0.40900
C764        C  0.25305790  0.91319550  0.09555844     0.37500
C765        C  0.23690013  0.82564925  0.07954082     0.37200
C766        C  0.12808410  0.86425921  0.13426512     0.38000
N767        N  0.12501064  0.90714616  0.43206840    -0.42800
N768        N  0.27371393  0.91535488  0.12374759    -0.43300
N769        N  0.10489063  0.87158982  0.14395005    -0.40600
N770        N  0.25813671  0.81651336  0.06783442    -0.42100
H771        H  0.21514029  0.79372823  0.12877608     0.14100
H772        H  0.15073286  0.89672812  0.08630056     0.10600
H773        H  0.14998577  0.86790298  0.01373829     0.11700
H774        H  0.25072266  0.95307947  0.04105081     0.17500
C775        C  0.18163436  0.73693642  0.00548197    -0.00700
C776        C  0.17065152  0.71437061  0.02837744     0.07900
C777        C  0.17181451  0.67943089  0.02266830    -0.06700
C778        C  0.18435791  0.66701043  0.99571823     0.05300
C779        C  0.19563500  0.68962675  0.47340258    -0.13900
C780        C  0.19405740  0.72439499  0.97841761    -0.07300
C781        C  0.15887601  0.72648734  0.05887057     0.06200
C782        C  0.13223927  0.74962004  0.05278328    -0.08400
C783        C  0.12348310  0.76406490  0.08145966     0.01200
C784        C  0.14064240  0.75470362  0.11682813     0.01100
C785        C  0.16508340  0.72969923  0.12268988    -0.11900
C786        C  0.17458273  0.71582357  0.09434776     0.01600
C787        C  0.09798990  0.78953210  0.07435071     0.40900
C788        C  0.20238359  0.69255367  0.10296607     0.37500
C789        C  0.17987923  0.77303056  0.00842520     0.37200
C790        C  0.18485734  0.63087438  0.49100316     0.38000
N791        N  0.07750150  0.80995448  0.06857128    -0.42800
N792        N  0.22453779  0.67377726  0.10990043    -0.43300
N793        N  0.18529065  0.60193054  0.48723548    -0.40600
N794        N  0.17789636  0.80198464  0.00978657    -0.42100
H795        H  0.20187350  0.74175359  0.96063150     0.14100
H796        H  0.16267204  0.66170641  0.03922843     0.10600
H797        H  0.11902702  0.75724625  0.02569372     0.11700
H798        H  0.17890559  0.72309651  0.15000442     0.17500
C799        C  0.39175184  0.74815467  0.49826444    -0.00700
C800        C  0.36760868  0.74012675  0.01711287     0.07900
C801        C  0.37431528  0.75362273  0.05194066    -0.06700
C802        C  0.40285015  0.77712499  0.06665955     0.05300
C803        C  0.42437538  0.78797860  0.04592759    -0.13900
C804        C  0.41941342  0.77239087  0.51247900    -0.07300
C805        C  0.33324123  0.72153107  0.49897608     0.06200
C806        C  0.32430539  0.69032184  0.51174143    -0.08400
C807        C  0.29230539  0.67226713  0.49381841     0.01200
C808        C  0.26915689  0.68539875  0.46270483     0.01100
C809        C  0.27755928  0.71699907  0.45080651    -0.11900
C810        C  0.30898480  0.73523405  0.46878532     0.01600
C811        C  0.28353589  0.64053108  0.50759877     0.40900
C812        C  0.31561426  0.76827874  0.45612087     0.37500
C813        C  0.38791813  0.73265815  0.46374255     0.37200
C814        C  0.40856456  0.79083949  0.10226689     0.38000
N815        N  0.27642154  0.61508276  0.51868165    -0.42800
N816        N  0.32140031  0.79471901  0.44621546    -0.43300
N817        N  0.41291779  0.80152388  0.13092418    -0.40600
N818        N  0.38485107  0.72022411  0.43609302    -0.42900
H819        H  0.43664465  0.78006710  0.49703519     0.14100
H820        H  0.35630858  0.74708242  0.06688802     0.10600
H821        H  0.34243476  0.67996663  0.03536999     0.11700
H822        H  0.25925589  0.72738085  0.42729942     0.17500
N823        N  0.23675139  0.66756903  0.94249073    -0.02200
C824        C  0.20457691  0.67702729  0.94198674     0.00400
C825        C  0.17945473  0.66698173  0.91019486    -0.22500
C826        C  0.19684205  0.65111631  0.89006274    -0.22700
C827        C  0.23195691  0.65152396  0.91053841     0.00300
H828        H  0.15131310  0.66910404  0.90334370     0.14100
H829        H  0.18451366  0.63749747  0.86489503     0.14100
N830        N  0.14084788  0.77567924  0.64699383    -0.02200
C831        C  0.16386088  0.80270303  0.65850786     0.00400
C832        C  0.16736718  0.81092042  0.69365214    -0.22500
C833        C  0.14572553  0.78783333  0.70411272    -0.22700
C834        C  0.12890862  0.76677595  0.67466496     0.00300
H835        H  0.18153169  0.83296233  0.70889274     0.14100
H836        H  0.13917846  0.78951198  0.72882061     0.14100
N837        N  0.22872926  0.97339739  0.46421433    -0.02200
C838        C  0.20249120  0.96285992  0.47733571     0.00400
C839        C  0.17648244  0.98578959  0.46937325    -0.22500
C840        C  0.18741858  0.51139594  0.95105190    -0.22700
C841        C  0.21948996  0.50300114  0.94812153     0.00300
H842        H  0.15287628  0.98469502  0.47732122     0.14100
H843        H  0.17357050  0.53379399  0.94115159     0.14100
N844        N  0.44956116  0.81643463  0.55669750    -0.02200
C845        C  0.44598227  0.84734089  0.54162065     0.00400
C846        C  0.47764940  0.86629259  0.55313123    -0.22500
C847        C  0.50147059  0.84632805  0.57568410    -0.22700
C848        C  0.48361153  0.81583858  0.57739862     0.00300
H849        H  0.48243933  0.89248749  0.54751413     0.14100
H850        H  0.52835462  0.85401593  0.59090818     0.14100
N851        N  0.20230756  0.51661757  0.77556484    -0.02200
C852        C  0.20230783  0.99351689  0.74962213     0.00400
C853        C  0.23649585  0.98925312  0.74989594    -0.22500
C854        C  0.25827419  0.50900126  0.77773001    -0.22700
C855        C  0.23669396  0.52464773  0.79357009     0.00300
H856        H  0.24489544  0.97063940  0.73446694     0.14100
H857        H  0.28667343  0.00903623  0.78761226     0.14100
N858        N  0.97971287  0.63689532  0.69069791    -0.02200
C859        C  0.44594971  0.63120864  0.69177329     0.00400
C860        C  0.42222420  0.64237392  0.66082550    -0.22500
C861        C  0.44141169  0.65763416  0.64133125    -0.22700
C862        C  0.97641875  0.65642576  0.66125433     0.00300
H863        H  0.39404912  0.64331982  0.65503338     0.14100
H864        H  0.43071186  0.67357855  0.61869338     0.14100
N865        N  0.39737538  0.53572188  0.90733601    -0.02200
C866        C  0.42180725  0.01318780  0.92261807     0.00400
C867        C  0.41910464  0.00454929  0.95580429    -0.22500
C868        C  0.39210075  0.02199364  0.96079916    -0.22700
C869        C  0.37887754  0.54076071  0.93049222     0.00300
H870        H  0.43304236  0.98526968  0.97303242     0.14100
H871        H  0.38107791  0.01863633  0.98257545     0.14100
N872        N  0.99704231  0.83994950  0.73990370    -0.02200
C873        C  0.47663270  0.84806922  0.76031357     0.00400
C874        C  0.45069903  0.82283354  0.75757696    -0.22500
C875        C  0.45545612  0.79812578  0.73497471    -0.22700
C876        C  0.98437475  0.80895461  0.72494424     0.00300
H877        H  0.43077438  0.82228387  0.77096986     0.14100
H878        H  0.44006208  0.77439965  0.72746575     0.14100
In879      In  0.27480859  0.56414723  0.89686461     1.36900
C880        C  0.24026489  0.52421271  0.93058638     0.78900
O881        O  0.32245514  0.54645010  0.93823601    -0.59600
O882        O  0.32992286  0.56989983  0.89256003    -0.50500
C883        C  0.24979331  0.54012193  0.82972956     0.71500
O884        O  0.23096495  0.54188956  0.84997680    -0.45400
C885        C  0.25463148  0.62562974  0.90429597     0.76200
O886        O  0.26243836  0.51305765  0.91714854    -0.57200
O887        O  0.27769183  0.61239731  0.92930026    -0.47300
O888        O  0.23642705  0.55539143  0.92721605    -0.53600
C889        C  0.34326710  0.55373705  0.92061212     0.86400
O890        O  0.28120683  0.55124831  0.84349646    -0.55500
O891        O  0.24751559  0.61048712  0.87440783    -0.58800
In892      In  0.02403790  0.75073052  0.65940882     1.36900
C893        C  0.99927219  0.78821317  0.70242223     0.78900
O894        O  0.02802464  0.79592919  0.62732545    -0.59600
O895        O  0.48258694  0.76291005  0.60745742    -0.50500
C896        C  0.09272009  0.75281820  0.66976796     0.71500
O897        O  0.07964227  0.75306035  0.69519763    -0.45400
C898        C  0.99895349  0.68723561  0.66068241     0.76200
O899        O  0.03050266  0.79199748  0.70188083    -0.57200
O900        O  0.99797841  0.70187532  0.63193632    -0.47300
O901        O  0.48139732  0.76467583  0.68214339    -0.53600
C902        C  0.49851397  0.79037465  0.60407566     0.86400
O903        O  0.07082795  0.74569897  0.63934387    -0.55500
O904        O  0.01638583  0.70362872  0.68883114    -0.58800
C905        C  0.44343307  0.93659432  0.87775454    -0.00700
C906        C  0.46540354  0.95043667  0.85874511     0.07900
C907        C  0.47547959  0.98512436  0.86295689    -0.06700
C908        C  0.46331117  0.00605800  0.88517560     0.05300
C909        C  0.44005218  0.99232804  0.90289849    -0.13900
C910        C  0.43133030  0.95739972  0.89973557    -0.07300
C911        C  0.47593105  0.92892213  0.83296228     0.06200
C912        C  0.45910148  0.93210873  0.79608184    -0.08400
C913        C  0.46143875  0.90723168  0.77139029     0.01200
C914        C  0.48099226  0.87873817  0.78355030     0.01100
C915        C  0.49981612  0.87681307  0.82011367    -0.11900
C916        C  0.49781403  0.90182865  0.84473514     0.01600
C917        C  0.44153784  0.91016424  0.73407619     0.40900
C918        C  0.51682751  0.89830507  0.88224135     0.37500
C919        C  0.43130239  0.90135243  0.87356612     0.37200
C920        C  0.47542257  0.04124110  0.88973213     0.38000
N921        N  0.42551812  0.91247988  0.70416577    -0.42800
N922        N  0.53199225  0.89560246  0.91233406    -0.43300
N923        N  0.48540608  0.56944144  0.89336776    -0.40600
N924        N  0.42163903  0.87311049  0.87020705    -0.42100
H925        H  0.41339666  0.94652709  0.91307520     0.14100
H926        H  0.49262270  0.99585545  0.84867570     0.10600
H927        H  0.44219915  0.95284075  0.78684545     0.11700
H928        H  0.51462454  0.85481164  0.82971103     0.17500
C929        C  0.38986895  0.59408884  0.74628762    -0.00700
C930        C  0.41176637  0.59994838  0.78197311     0.07900
C931        C  0.44391064  0.61897300  0.78788093    -0.06700
C932        C  0.45452130  0.63142595  0.75923059     0.05300
C933        C  0.43444188  0.62225517  0.72360587    -0.13900
C934        C  0.40160847  0.60449440  0.71772563    -0.07300
C935        C  0.40264363  0.58491800  0.81314133     0.06200
C936        C  0.39204924  0.55029970  0.81176072    -0.08400
C937        C  0.38618485  0.53453087  0.84137408     0.01200
C938        C  0.39364403  0.55264278  0.87406790     0.01100
C939        C  0.40200335  0.58752196  0.87506169    -0.11900
C940        C  0.40594937  0.60387299  0.84485309     0.01600
C941        C  0.37230921  0.49988580  0.83765213     0.40900
C942        C  0.41362285  0.63999176  0.84729614     0.37500
C943        C  0.35496760  0.57791175  0.73813353     0.37200
C944        C  0.98545687  0.65424150  0.76723185     0.38000
N945        N  0.36078744  0.97220952  0.83442077    -0.42800
N946        N  0.41984229  0.66893368  0.84929801    -0.43300
N947        N  0.01012203  0.67272569  0.77368367    -0.40600
N948        N  0.32701877  0.56496361  0.73169631    -0.42100
H949        H  0.38515706  0.59806712  0.69061573     0.14100
H950        H  0.46105898  0.62399338  0.81501616     0.10600
H951        H  0.38907342  0.53521192  0.78775886     0.11700
H952        H  0.40686224  0.60168557  0.90002682     0.17500
C953        C  0.10806445  0.53154138  0.76518193    -0.00700
C954        C  0.10787919  0.56734767  0.76257590     0.07900
C955        C  0.14062114  0.58571493  0.77418198    -0.06700
C956        C  0.17216418  0.56977071  0.77957509     0.05300
C957        C  0.17205623  0.53398772  0.77841535    -0.13900
C958        C  0.14015381  0.51571069  0.77524799    -0.07300
C959        C  0.07512046  0.58611991  0.74522447     0.06200
C960        C  0.04294314  0.57633453  0.75061272    -0.08400
C961        C  0.01122686  0.58970905  0.73042553     0.01200
C962        C  0.01148643  0.61923644  0.70977358     0.01100
C963        C  0.04416279  0.62935244  0.70516446    -0.11900
C964        C  0.07491028  0.61257010  0.72098901     0.01600
C965        C  0.98010334  0.56829180  0.72732964     0.40900
C966        C  0.10519528  0.62230412  0.70981137     0.37500
C967        C  0.07630113  0.50974755  0.75549171     0.37200
C968        C  0.20336202  0.59125872  0.78302462     0.38000
N969        N  0.45617054  0.54971438  0.72523474    -0.42800
N970        N  0.12933300  0.63039540  0.70083256    -0.43300
N971        N  0.22809771  0.60894287  0.78583995    -0.40600
N972        N  0.05104573  0.49197491  0.74803769    -0.42100
H973        H  0.13988033  0.48851505  0.77774845     0.14100
H974        H  0.14150879  0.61308485  0.77590683     0.10600
H975        H  0.04187989  0.55655429  0.76914806     0.11700
H976        H  0.04610902  0.64916716  0.68731378     0.17500
C977        C  0.08146041  0.89285220  0.76146880    -0.00700
C978        C  0.08310950  0.90141413  0.72696830     0.07900
C979        C  0.05505857  0.89026221  0.69677094    -0.06700
C980        C  0.02616531  0.87077704  0.70061490     0.05300
C981        C  0.02588635  0.86057146  0.73492930    -0.13900
C982        C  0.05366790  0.87181691  0.76496481    -0.07300
C983        C  0.11423277  0.92161451  0.72293960     0.06200
C984        C  0.14777862  0.91150412  0.74209083    -0.08400
C985        C  0.17718862  0.93410420  0.74947425     0.01200
C986        C  0.17385413  0.96677953  0.73501713     0.01100
C987        C  0.14156807  0.97474244  0.71055507    -0.11900
C988        C  0.11151597  0.95268022  0.70492701     0.01600
C989        C  0.20936783  0.92437972  0.77538101     0.40900
C990        C  0.07803711  0.96393568  0.68330011     0.37500
C991        C  0.10716170  0.90638131  0.79396146     0.37200
C992        C  0.99629639  0.86309344  0.66931558     0.38000
N993        N  0.23498617  0.91665225  0.79640364    -0.42800
N994        N  0.05122698  0.97307759  0.66595729    -0.43300
N995        N  0.97211788  0.85737499  0.64427617    -0.40600
N996        N  0.12764228  0.91727258  0.82000601    -0.42100
H997        H  0.05345682  0.86436146  0.79138624     0.14100
H998        H  0.05542496  0.89705182  0.67019766     0.10600
H999        H  0.15039346  0.88701574  0.75456683     0.11700
H1000       H  0.13906060  0.99953846  0.69879490     0.17500
C1001       C  0.35419437  0.87738364  0.52213838    -0.00700
C1002       C  0.35166405  0.89875691  0.49303959     0.07900
C1003       C  0.37882506  0.90066812  0.47750209    -0.06700
C1004       C  0.40899556  0.88245283  0.49158268     0.05300
C1005       C  0.41214088  0.86186701  0.52163890    -0.13900
C1006       C  0.38421153  0.85922373  0.53615581    -0.07300
C1007       C  0.32173272  0.92080108  0.48066833     0.06200
C1008       C  0.32260884  0.95081851  0.50019718    -0.08400
C1009       C  0.29249723  0.96920498  0.99390987     0.01200
C1010       C  0.26086793  0.95711645  0.46837107     0.01100
C1011       C  0.26037746  0.92809868  0.44763761    -0.11900
C1012       C  0.29072624  0.91013825  0.45325449     0.01600
C1013       C  0.29384276  0.99939161  0.01514306     0.40900
C1014       C  0.28933874  0.88069349  0.43098142     0.37500
C1015       C  0.32694972  0.87521035  0.53915327     0.37200
C1016       C  0.43667506  0.88583560  0.47523382     0.38000
N1017       N  0.29477360  0.52359533  0.03212328    -0.42800
N1018       N  0.28807304  0.85743290  0.41256648    -0.43300
N1019       N  0.45904449  0.88860455  0.96237713    -0.40600
N1020       N  0.30500649  0.87395560  0.55263219    -0.42100
H1021       H  0.38666365  0.84473345  0.55993100     0.14100
H1022       H  0.37688783  0.91712207  0.95508420     0.10600
H1023       H  0.34644144  0.95912006  0.02128740     0.11700
H1024       H  0.23608698  0.91931727  0.42748099     0.17500
C1025       C  0.21009312  0.83638658  0.59400210    -0.00700
C1026       C  0.19153535  0.86545315  0.58161196     0.07900
C1027       C  0.16516518  0.87449073  0.59590684    -0.06700
C1028       C  0.15677291  0.85486607  0.62186640     0.05300
C1029       C  0.17496612  0.82557088  0.63395805    -0.13900
C1030       C  0.20155573  0.81657441  0.61994537    -0.07300
C1031       C  0.19811650  0.88670300  0.55315493     0.06200
C1032       C  0.17248018  0.88595863  0.51934376    -0.08400
C1033       C  0.17469121  0.90928669  0.49339674     0.01200
C1034       C  0.20300615  0.93389183  0.50113862     0.01100
C1035       C  0.22943204  0.93370934  0.53445459    -0.11900
C1036       C  0.22706377  0.91049423  0.56052566     0.01600
C1037       C  0.14711460  0.90808447  0.95934723     0.40900
C1038       C  0.25305736  0.91319349  0.59555946     0.37500
C1039       C  0.23689993  0.82564784  0.57954026     0.37200
C1040       C  0.12808371  0.86425622  0.63426499     0.38000
N1041       N  0.12500942  0.90714570  0.93206854    -0.42800
N1042       N  0.27371287  0.91535248  0.62374889    -0.43300
N1043       N  0.10489024  0.87158643  0.64395010    -0.40600
N1044       N  0.25813674  0.81651235  0.56783382    -0.42100
H1045       H  0.21513831  0.79372872  0.62877405     0.14100
H1046       H  0.15073308  0.89672431  0.58630107     0.10600
H1047       H  0.14998519  0.86790148  0.51373750     0.11700
H1048       H  0.25072398  0.95307915  0.54105305     0.17500
C1049       C  0.18163453  0.73693469  0.50548165    -0.00700
C1050       C  0.17065105  0.71436874  0.52837655     0.07900
C1051       C  0.17181362  0.67942904  0.52266701    -0.06700
C1052       C  0.18435731  0.66700873  0.49571710     0.05300
C1053       C  0.19563503  0.68962835  0.97340314    -0.13900
C1054       C  0.19405787  0.72439353  0.47841729    -0.07300
C1055       C  0.15887529  0.72648547  0.55886937     0.06200
C1056       C  0.13223915  0.74961839  0.55278260    -0.08400
C1057       C  0.12348271  0.76406326  0.58145855     0.01200
C1058       C  0.14064175  0.75470145  0.61682721     0.01100
C1059       C  0.16508225  0.72969662  0.62268880    -0.11900
C1060       C  0.17458156  0.71582107  0.59434666     0.01600
C1061       C  0.09798989  0.78953078  0.57435012     0.40900
C1062       C  0.20238189  0.69255074  0.60296489     0.37500
C1063       C  0.17987977  0.77302890  0.50842504     0.37200
C1064       C  0.18485813  0.63087602  0.99100470     0.38000
N1065       N  0.07750176  0.80995342  0.56857062    -0.42800
N1066       N  0.22453573  0.67377387  0.60989925    -0.43300
N1067       N  0.18529161  0.60193219  0.98723701    -0.40600
N1068       N  0.17789710  0.80198303  0.50978654    -0.42100
H1069       H  0.20187415  0.74175124  0.46063266     0.14100
H1070       H  0.16267033  0.66170423  0.53922678     0.10600
H1071       H  0.11902581  0.75724626  0.52568968     0.11700
H1072       H  0.17890448  0.72309385  0.65000327     0.17500
C1073       C  0.39175200  0.74815558  0.99826620    -0.00700
C1074       C  0.36760911  0.74012511  0.51711173     0.07900
C1075       C  0.37431642  0.75362064  0.55193965    -0.06700
C1076       C  0.40285103  0.77712276  0.56665870     0.05300
C1077       C  0.42437580  0.78797693  0.54592637    -0.13900
C1078       C  0.41941360  0.77239184  0.01248075    -0.07300
C1079       C  0.33324084  0.72153253  0.99897704     0.06200
C1080       C  0.32430443  0.69032392  0.01174357    -0.08400
C1081       C  0.29230441  0.67226905  0.99382015     0.01200
C1082       C  0.26915683  0.68539973  0.96270580     0.01100
C1083       C  0.27755958  0.71699955  0.95080598    -0.11900
C1084       C  0.30898535  0.73523454  0.96878534     0.01600
C1085       C  0.28353461  0.64053348  0.00760132     0.40900
C1086       C  0.31561546  0.76827839  0.95611925     0.37500
C1087       C  0.38791901  0.73265807  0.96374483     0.37200
C1088       C  0.40856580  0.79083714  0.60226617     0.38000
N1089       N  0.27641991  0.61508556  0.01868467    -0.42800
N1090       N  0.32140216  0.79471788  0.94621257    -0.43300
N1091       N  0.41291914  0.80152112  0.63092353    -0.40600
N1092       N  0.38485253  0.72022352  0.93609574    -0.42900
H1093       H  0.43664509  0.78006804  0.99703692     0.14100
H1094       H  0.35630850  0.74707935  0.56688855     0.10600
H1095       H  0.34243746  0.67996320  0.53536822     0.11700
H1096       H  0.25925895  0.72737955  0.92730098     0.17500
N1097       N  0.73677481  0.16758838  0.44249102    -0.02200
C1098       C  0.70460071  0.17704692  0.44198813     0.00400
C1099       C  0.67947757  0.16700416  0.41019540    -0.22500
C1100       C  0.69686411  0.15114043  0.39006134    -0.22700
C1101       C  0.73197872  0.15154579  0.41053722     0.00300
H1102       H  0.65133793  0.16912504  0.40334586     0.14100
H1103       H  0.68453538  0.13752242  0.36489508     0.14100
N1104       N  0.64090061  0.27565783  0.14702551    -0.02200
C1105       C  0.66394091  0.30265901  0.15856092     0.00400
C1106       C  0.66746047  0.31085133  0.19371418    -0.22500
C1107       C  0.64579739  0.28777345  0.20415708    -0.22700
C1108       C  0.62895585  0.26674674  0.17469060     0.00300
H1109       H  0.68164760  0.33287522  0.20897403     0.14100
H1110       H  0.63925634  0.28944161  0.22886708     0.14100
N1111       N  0.72878728  0.47340593  0.96428425    -0.02200
C1112       C  0.70256595  0.46288082  0.97743595     0.00400
C1113       C  0.67657565  0.48582985  0.96951333    -0.22500
C1114       C  0.68733282  0.01135830  0.45091964    -0.22700
C1115       C  0.71942727  0.00298338  0.44803449     0.00300
H1116       H  0.65298689  0.48474779  0.97749049     0.14100
H1117       H  0.67347621  0.03374550  0.44099809     0.14100
N1118       N  0.94960584  0.31643362  0.05666592    -0.02200
C1119       C  0.94602052  0.34734046  0.04158657     0.00400
C1120       C  0.97767234  0.36631425  0.05313974    -0.22500
C1121       C  0.00148870  0.34636692  0.07572120    -0.22700
C1122       C  0.98364369  0.31586415  0.07741348     0.00300
H1123       H  0.98245171  0.39251670  0.04753567     0.14100
H1124       H  0.02835876  0.35407431  0.09097893     0.14100
N1125       N  0.70228410  0.01662423  0.27555532    -0.02200
C1126       C  0.70233829  0.49351662  0.24962706     0.00400
C1127       C  0.73652744  0.48926497  0.24989849    -0.22500
C1128       C  0.75824822  0.00898797  0.27772460    -0.22700
C1129       C  0.73667207  0.02464699  0.29356015     0.00300
H1130       H  0.74493304  0.47065607  0.23446410     0.14100
H1131       H  0.78669967  0.50905632  0.28761640     0.14100
N1132       N  0.47972197  0.13693992  0.19072574    -0.02200
C1133       C  0.94595656  0.13125213  0.19179555     0.00400
C1134       C  0.92223464  0.14240564  0.16083846    -0.22500
C1135       C  0.94142572  0.15766072  0.14134459    -0.22700
C1136       C  0.47643158  0.15646100  0.16127680     0.00300
H1137       H  0.89405733  0.14334735  0.15503797     0.14100
H1138       H  0.93072738  0.17359785  0.11869784     0.14100
N1139       N  0.89734855  0.03570157  0.40732066    -0.02200
C1140       C  0.92184912  0.51322240  0.42263898     0.00400
C1141       C  0.91915483  0.50458748  0.45582899    -0.22500
C1142       C  0.89214155  0.52201899  0.46082093    -0.22700
C1143       C  0.87885028  0.04074478  0.43047625     0.00300
H1144       H  0.93310372  0.48531381  0.47306174     0.14100
H1145       H  0.88112189  0.51865927  0.48260010     0.14100
N1146       N  0.49708419  0.33995486  0.23995254    -0.02200
C1147       C  0.97668400  0.34806846  0.26037363     0.00400
C1148       C  0.95075872  0.32282648  0.25764812    -0.22500
C1149       C  0.95551229  0.29812150  0.23504010    -0.22700
C1150       C  0.48441976  0.30895852  0.22499537     0.00300
H1151       H  0.93084163  0.32227264  0.27104786     0.14100
H1152       H  0.94012178  0.27439283  0.22753506     0.14100
In1153     In  0.77479222  0.06415509  0.39684843     1.36900
C1154       C  0.74022057  0.02420630  0.43052927     0.78900
O1155       O  0.82243942  0.04647840  0.43823494    -0.59600
O1156       O  0.82989995  0.06987585  0.39252909    -0.50500
C1157       C  0.74977440  0.04012730  0.32971627     0.71500
O1158       O  0.73094414  0.04191029  0.34995969    -0.45400
C1159       C  0.75464632  0.12564536  0.40429634     0.76200
O1160       O  0.76243920  0.01306660  0.41714437    -0.57200
O1161       O  0.77768156  0.11239063  0.42930511    -0.47300
O1162       O  0.73635511  0.05537901  0.42713224    -0.53600
C1163       C  0.84324614  0.05373495  0.42059643     0.86400
O1164       O  0.78119120  0.05124349  0.34348413    -0.55500
O1165       O  0.74754308  0.11051900  0.37440071    -0.58800
In1166     In  0.52406983  0.25075793  0.15943035     1.36900
C1167       C  0.49931097  0.28822636  0.20246046     0.78900
O1168       O  0.52802884  0.29599113  0.12738793    -0.59600
O1169       O  0.98264480  0.26291609  0.10744902    -0.50500
C1170       C  0.59275549  0.25281670  0.16978555     0.71500
O1171       O  0.57967822  0.25305644  0.19521500    -0.45400
C1172       C  0.49896505  0.18727105  0.16070214     0.76200
O1173       O  0.53053633  0.29202108  0.20190535    -0.57200
O1174       O  0.49799189  0.20190908  0.13195565    -0.47300
O1175       O  0.98143567  0.26468809  0.18218282    -0.53600
C1176       C  0.99854489  0.29040751  0.10410097     0.86400
O1177       O  0.57085795  0.24572104  0.13935910    -0.55500
O1178       O  0.51640072  0.20366280  0.18885075    -0.58800
C1179       C  0.94345314  0.43662938  0.37776211    -0.00700
C1180       C  0.96543170  0.45046698  0.35875982     0.07900
C1181       C  0.97551567  0.48515320  0.36297417    -0.06700
C1182       C  0.96334831  0.50608945  0.38519201     0.05300
C1183       C  0.94008989  0.49236205  0.40291662    -0.13900
C1184       C  0.93135755  0.45743572  0.39974777    -0.07300
C1185       C  0.97596551  0.42894703  0.33298627     0.06200
C1186       C  0.95913212  0.43211747  0.29610440    -0.08400
C1187       C  0.96147304  0.40723021  0.27142474     0.01200
C1188       C  0.98103582  0.37874500  0.28359769     0.01100
C1189       C  0.99986341  0.37683676  0.32016193    -0.11900
C1190       C  0.99785429  0.40186042  0.34477226     0.01600
C1191       C  0.94156247  0.41014295  0.23411053     0.40900
C1192       C  0.01686297  0.39835100  0.38228192     0.37500
C1193       C  0.93130489  0.40139229  0.37356056     0.37200
C1194       C  0.97545823  0.54127320  0.38974195     0.38000
N1195       N  0.92553371  0.41244243  0.20420060    -0.42800
N1196       N  0.03202188  0.39566148  0.41237808    -0.43300
N1197       N  0.98537256  0.06940875  0.39336699    -0.40600
N1198       N  0.92162469  0.37315480  0.37018898    -0.42100
H1199       H  0.91342188  0.44656749  0.41308366     0.14100
H1200       H  0.99266048  0.49587948  0.34869700     0.10600
H1201       H  0.94222566  0.45284039  0.28686018     0.11700
H1202       H  0.01467870  0.35484123  0.32976935     0.17500
C1203       C  0.88986566  0.09413240  0.24630106    -0.00700
C1204       C  0.91176115  0.09998575  0.28198818     0.07900
C1205       C  0.94390398  0.11901423  0.28790085    -0.06700
C1206       C  0.95451852  0.13147036  0.25925326     0.05300
C1207       C  0.93444245  0.12230227  0.22362637    -0.13900
C1208       C  0.90160759  0.10454277  0.21774187    -0.07300
C1209       C  0.90263977  0.08493974  0.31315101     0.06200
C1210       C  0.89204955  0.05031953  0.31175644    -0.08400
C1211       C  0.88618039  0.03453639  0.34136056     0.01200
C1212       C  0.89363191  0.05263539  0.37406117     0.01100
C1213       C  0.90198938  0.08751632  0.37506975    -0.11900
C1214       C  0.90593944  0.10388142  0.34486945     0.01600
C1215       C  0.87230543  0.99989090  0.33762157     0.40900
C1216       C  0.91360702  0.14000132  0.34732680     0.37500
C1217       C  0.85496499  0.07795311  0.23814199     0.37200
C1218       C  0.48545771  0.15428202  0.26725987     0.38000
N1219       N  0.86079168  0.47220445  0.33446610    -0.42800
N1220       N  0.91982058  0.16894406  0.34934061    -0.43300
N1221       N  0.51012646  0.17276183  0.27371638    -0.40600
N1222       N  0.82701665  0.06500277  0.23170083    -0.42100
H1223       H  0.88515894  0.09811718  0.19063243     0.14100
H1224       H  0.96105035  0.12403163  0.31503782     0.10600
H1225       H  0.88907823  0.03524075  0.28774802     0.11700
H1226       H  0.90684105  0.10167029  0.40003818     0.17500
C1227       C  0.60804803  0.03157255  0.26517874    -0.00700
C1228       C  0.60787628  0.06738065  0.26260066     0.07900
C1229       C  0.64062371  0.08573775  0.27421394    -0.06700
C1230       C  0.67215854  0.06978462  0.27958459     0.05300
C1231       C  0.67203835  0.03400100  0.27841047    -0.13900
C1232       C  0.64013062  0.01573108  0.27523741    -0.07300
C1233       C  0.57512478  0.08616499  0.24526172     0.06200
C1234       C  0.54294583  0.07637892  0.25064577    -0.08400
C1235       C  0.51123145  0.08975520  0.23045721     0.01200
C1236       C  0.51149468  0.11928366  0.20980907     0.01100
C1237       C  0.54417438  0.12940478  0.20520896    -0.11900
C1238       C  0.57492083  0.11262173  0.22103638     0.01600
C1239       C  0.48010631  0.06833820  0.22735494     0.40900
C1240       C  0.60521048  0.12236305  0.20986906     0.37500
C1241       C  0.57627679  0.00978901  0.25545771     0.37200
C1242       C  0.70335722  0.09126645  0.28301798     0.38000
N1243       N  0.95617194  0.04976170  0.22525543    -0.42800
N1244       N  0.62935266  0.13045991  0.20089962    -0.43300
N1245       N  0.72809291  0.10894570  0.28581736    -0.40600
N1246       N  0.55101364  0.99202615  0.24797506    -0.42100
H1247       H  0.63984654  0.98853527  0.27772514     0.14100
H1248       H  0.64152095  0.11310406  0.27595444     0.10600
H1249       H  0.54188011  0.05659240  0.26917515     0.11700
H1250       H  0.54612550  0.14921562  0.18736885     0.17500
C1251       C  0.58151673  0.39283247  0.26150903    -0.00700
C1252       C  0.58315211  0.40141011  0.22700691     0.07900
C1253       C  0.55508932  0.39027279  0.19681287    -0.06700
C1254       C  0.52619517  0.37079276  0.20066130     0.05300
C1255       C  0.52592512  0.36057822  0.23497525    -0.13900
C1256       C  0.55371896  0.37180632  0.26500734    -0.07300
C1257       C  0.61427130  0.42161192  0.22296910     0.06200
C1258       C  0.64782114  0.41149959  0.24210552    -0.08400
C1259       C  0.67723101  0.43409923  0.24947591     0.01200
C1260       C  0.67389028  0.46677478  0.23502070     0.01100
C1261       C  0.64159972  0.47473695  0.21056694    -0.11900
C1262       C  0.61154875  0.45267602  0.20495257     0.01600
C1263       C  0.70941819  0.42437306  0.27536819     0.40900
C1264       C  0.57806720  0.46393468  0.18333654     0.37500
C1265       C  0.60724190  0.40632875  0.29400267     0.37200
C1266       C  0.49631927  0.36311815  0.16936571     0.38000
N1267       N  0.73504324  0.41664365  0.29637895    -0.42800
N1268       N  0.55125578  0.47308112  0.16600227    -0.43300
N1269       N  0.47213753  0.35740620  0.14432809    -0.40600
N1270       N  0.62774281  0.41718921  0.32004956    -0.42100
H1271       H  0.55351422  0.36434068  0.29143084     0.14100
H1272       H  0.55544947  0.39706543  0.17024059     0.10600
H1273       H  0.65044133  0.38701252  0.25457770     0.11700
H1274       H  0.63908819  0.49953038  0.19880824     0.17500
C1275       C  0.85419949  0.37731968  0.02203134    -0.00700
C1276       C  0.85169969  0.39874644  0.99298058     0.07900
C1277       C  0.87889228  0.40071152  0.97748830    -0.06700
C1278       C  0.90906203  0.38249415  0.99156671     0.05300
C1279       C  0.91217822  0.36185599  0.02158155    -0.13900
C1280       C  0.88421739  0.35916170  0.03605074    -0.07300
C1281       C  0.82177051  0.42079602  0.98062821     0.06200
C1282       C  0.82267727  0.45082480  0.00015022    -0.08400
C1283       C  0.79256755  0.46920875  0.49390386     0.01200
C1284       C  0.76091420  0.45711380  0.96840744     0.01100
C1285       C  0.76039080  0.42808228  0.94768183    -0.11900
C1286       C  0.79073254  0.41011784  0.95326357     0.01600
C1287       C  0.79394009  0.49939554  0.51514642     0.40900
C1288       C  0.78930548  0.38065089  0.93100835     0.37500
C1289       C  0.82692594  0.37509840  0.03900625     0.37200
C1290       C  0.93677078  0.38593173  0.97526121     0.38000
N1291       N  0.79465373  0.02359187  0.53211021    -0.42800
N1292       N  0.78800537  0.35737055  0.91260834    -0.43300
N1293       N  0.95916132  0.38874601  0.46243633    -0.40600
N1294       N  0.80495871  0.37380729  0.05245293    -0.42100
H1295       H  0.88664461  0.34463646  0.05979862     0.14100
H1296       H  0.87697853  0.41720927  0.45510470     0.10600
H1297       H  0.84653001  0.45913203  0.52121017     0.11700
H1298       H  0.73607888  0.41929185  0.92755946     0.17500
C1299       C  0.71015801  0.33635382  0.09404517    -0.00700
C1300       C  0.69162872  0.36544567  0.08169692     0.07900
C1301       C  0.66528969  0.37449815  0.09602981    -0.06700
C1302       C  0.65689654  0.35486221  0.12198147     0.05300
C1303       C  0.67505755  0.32553947  0.13402736    -0.13900
C1304       C  0.70161965  0.31653068  0.11998036    -0.07300
C1305       C  0.69819774  0.38669978  0.05323582     0.06200
C1306       C  0.67252812  0.38599442  0.01944708    -0.08400
C1307       C  0.67473165  0.40933022  0.99350460     0.01200
C1308       C  0.70307811  0.43390040  0.00122453     0.01100
C1309       C  0.72953785  0.43367651  0.03451489    -0.11900
C1310       C  0.72717242  0.41045741  0.06058482     0.01600
C1311       C  0.64711328  0.40817474  0.45948391     0.40900
C1312       C  0.75319933  0.41312346  0.09559992     0.37500
C1313       C  0.73693294  0.32559982  0.07954596     0.37200
C1314       C  0.62823748  0.36427125  0.13441900     0.38000
N1315       N  0.62497278  0.40727525  0.43223100    -0.42800
N1316       N  0.77388073  0.41525781  0.12377554    -0.43300
N1317       N  0.60506933  0.37161801  0.14413688    -0.40600
N1318       N  0.75814398  0.31645094  0.06781034    -0.42100
H1319       H  0.71518004  0.29366414  0.12877562     0.14100
H1320       H  0.65087882  0.39675195  0.08645679     0.10600
H1321       H  0.65001108  0.36796150  0.01385688     0.11700
H1322       H  0.75085278  0.45301774  0.04109785     0.17500
C1323       C  0.68164411  0.23693860  0.00548583    -0.00700
C1324       C  0.67066243  0.21436710  0.02837668     0.07900
C1325       C  0.67182968  0.17942824  0.02266308    -0.06700
C1326       C  0.68437995  0.16701509  0.99571466     0.05300
C1327       C  0.69565674  0.18963931  0.47340605    -0.13900
C1328       C  0.69407173  0.22440444  0.97842184    -0.07300
C1329       C  0.65889307  0.22647705  0.05887612     0.06200
C1330       C  0.63226228  0.24961559  0.05280175    -0.08400
C1331       C  0.62352086  0.26406050  0.08148713     0.01200
C1332       C  0.64068405  0.25468800  0.11685027     0.01100
C1333       C  0.66511789  0.22967791  0.12269927    -0.11900
C1334       C  0.67460738  0.21580689  0.09434937     0.01600
C1335       C  0.59804436  0.28954310  0.07439560     0.40900
C1336       C  0.70241001  0.19253874  0.10295663     0.37500
C1337       C  0.67988534  0.27303214  0.00843442     0.37200
C1338       C  0.68489082  0.13088195  0.49100155     0.38000
N1339       N  0.57757098  0.30997926  0.06863418    -0.42800
N1340       N  0.72456661  0.17376488  0.10988210    -0.43300
N1341       N  0.68533345  0.10193911  0.48723413    -0.40600
N1342       N  0.67789952  0.30198548  0.00980103    -0.42100
H1343       H  0.70188638  0.24176609  0.96064022     0.14100
H1344       H  0.66268969  0.16170098  0.03921907     0.10600
H1345       H  0.61904551  0.25724933  0.02571466     0.11700
H1346       H  0.67894429  0.22306874  0.15001029     0.17500
C1347       C  0.89180602  0.24812796  0.49825797    -0.00700
C1348       C  0.86766631  0.24010191  0.01710869     0.07900
C1349       C  0.87438112  0.25360120  0.05193606    -0.06700
C1350       C  0.90291529  0.27710655  0.06664650     0.05300
C1351       C  0.92442885  0.28796638  0.04590410    -0.13900
C1352       C  0.91946226  0.27237391  0.51246023    -0.07300
C1353       C  0.83328906  0.22151906  0.49897586     0.06200
C1354       C  0.82433617  0.19031767  0.51174580    -0.08400
C1355       C  0.79232571  0.17227630  0.49382509     0.01200
C1356       C  0.76918456  0.18541189  0.46270969     0.01100
C1357       C  0.77760285  0.21700577  0.45080812    -0.11900
C1358       C  0.80903809  0.23522840  0.46878568     0.01600
C1359       C  0.78353798  0.14054967  0.50761052     0.40900
C1360       C  0.81568140  0.26826979  0.45612237     0.37500
C1361       C  0.88797601  0.23261217  0.46374570     0.37200
C1362       C  0.90863610  0.29082434  0.10225344     0.38000
N1363       N  0.77640719  0.11510911  0.51869688    -0.42800
N1364       N  0.82147985  0.29470828  0.44622076    -0.43300
N1365       N  0.91299605  0.30151006  0.13091138    -0.40600
N1366       N  0.88491322  0.22015943  0.43610594    -0.42900
H1367       H  0.93668938  0.28004959  0.49700865     0.14100
H1368       H  0.85637772  0.24706203  0.06689101     0.10600
H1369       H  0.84246272  0.17995344  0.03537258     0.11700
H1370       H  0.75930735  0.22739103  0.42730350     0.17500
N1371       N  0.73677486  0.16758831  0.94249008    -0.02200
C1372       C  0.70460089  0.17704705  0.94198716     0.00400
C1373       C  0.67947768  0.16700485  0.91019418    -0.22500
C1374       C  0.69686422  0.15114133  0.89005997    -0.22700
C1375       C  0.73197866  0.15154617  0.91053600     0.00300
H1376       H  0.65133883  0.16912603  0.90334485     0.14100
H1377       H  0.68453521  0.13752345  0.86489325     0.14100
N1378       N  0.64090073  0.27565981  0.64702574    -0.02200
C1379       C  0.66394053  0.30266157  0.65856082     0.00400
C1380       C  0.66745962  0.31085437  0.69371377    -0.22500
C1381       C  0.64579657  0.28777646  0.70415705    -0.22700
C1382       C  0.62895573  0.26674901  0.67469063     0.00300
H1383       H  0.68164643  0.33287906  0.70897398     0.14100
H1384       H  0.63925535  0.28944503  0.72886441     0.14100
N1385       N  0.72878573  0.47340594  0.46428150    -0.02200
C1386       C  0.70256422  0.46288087  0.47743330     0.00400
C1387       C  0.67657409  0.48582948  0.46951007    -0.22500
C1388       C  0.68733077  0.01135801  0.95091660    -0.22700
C1389       C  0.71942558  0.00298379  0.94803222     0.00300
H1390       H  0.65298237  0.48474745  0.47748735     0.14100
H1391       H  0.67347297  0.03374640  0.94099390     0.14100
N1392       N  0.94960500  0.31643493  0.55666643    -0.02200
C1393       C  0.94601988  0.34734168  0.54158662     0.00400
C1394       C  0.97767179  0.36631513  0.55313903    -0.22500
C1395       C  0.00148850  0.34636759  0.57572060    -0.22700
C1396       C  0.98364298  0.31586509  0.57741325     0.00300
H1397       H  0.98245158  0.39251636  0.54753461     0.14100
H1398       H  0.02835606  0.35407395  0.59097594     0.14100
N1399       N  0.70228286  0.01662406  0.77555389    -0.02200
C1400       C  0.70233889  0.49351721  0.74962876     0.00400
C1401       C  0.73652788  0.48926591  0.74990012    -0.22500
C1402       C  0.75824694  0.00898797  0.77772331    -0.22700
C1403       C  0.73667090  0.02464708  0.79355853     0.00300
H1404       H  0.74493399  0.47065636  0.73446524     0.14100
H1405       H  0.78669859  0.50905706  0.78761742     0.14100
N1406       N  0.47972127  0.13694089  0.69072446    -0.02200
C1407       C  0.94595585  0.13125322  0.69179435     0.00400
C1408       C  0.92223422  0.14240706  0.66083731    -0.22500
C1409       C  0.94142534  0.15766208  0.64134367    -0.22700
C1410       C  0.47643093  0.15646247  0.66127556     0.00300
H1411       H  0.89405599  0.14334893  0.65503648     0.14100
H1412       H  0.93072705  0.17359961  0.61869644     0.14100
N1413       N  0.89734735  0.03570139  0.90731888    -0.02200
C1414       C  0.92184924  0.51322346  0.92263930     0.00400
C1415       C  0.91915606  0.50458828  0.95582995    -0.22500
C1416       C  0.89214246  0.52202013  0.96082225    -0.22700
C1417       C  0.87884906  0.04074466  0.93047428     0.00300
H1418       H  0.93310325  0.48531801  0.97306013     0.14100
H1419       H  0.88112440  0.51866036  0.98260027     0.14100
N1420       N  0.49708427  0.33995604  0.73995270    -0.02200
C1421       C  0.97668385  0.34806961  0.76037375     0.00400
C1422       C  0.95075878  0.32282774  0.75764807    -0.22500
C1423       C  0.95551234  0.29812256  0.73504021    -0.22700
C1424       C  0.48442012  0.30895979  0.72499564     0.00300
H1425       H  0.93084031  0.32227347  0.77104856     0.14100
H1426       H  0.94012353  0.27439556  0.72753594     0.14100
In1427     In  0.77479108  0.06415525  0.89684654     1.36900
C1428       C  0.74021898  0.02420650  0.93052694     0.78900
O1429       O  0.82243826  0.04647852  0.93823304    -0.59600
O1430       O  0.82989864  0.06987583  0.89252707    -0.50500
C1431       C  0.74977323  0.04012741  0.82971442     0.71500
O1432       O  0.73094299  0.04191101  0.84995769    -0.45400
C1433       C  0.75464594  0.12564562  0.90429491     0.76200
O1434       O  0.76243831  0.01306695  0.91714289    -0.57200
O1435       O  0.77768075  0.11239043  0.92930368    -0.47300
O1436       O  0.73635297  0.05537912  0.92712929    -0.53600
C1437       C  0.84324489  0.05373497  0.92059449     0.86400
O1438       O  0.78119005  0.05124324  0.84348228    -0.55500
O1439       O  0.74754292  0.11051977  0.87439900    -0.58800
In1440     In  0.52406975  0.25075922  0.65943009     1.36900
C1441       C  0.49931114  0.28822752  0.70246059     0.78900
O1442       O  0.52802915  0.29599167  0.62738650    -0.59600
O1443       O  0.98264365  0.26291784  0.60744982    -0.50500
C1444       C  0.59275544  0.25281841  0.66978563     0.71500
O1445       O  0.57967806  0.25305823  0.69521504    -0.45400
C1446       C  0.49896504  0.18727221  0.66070145     0.76200
O1447       O  0.53053625  0.29202277  0.70190476    -0.57200
O1448       O  0.49799152  0.20191061  0.63195500    -0.47300
O1449       O  0.98143615  0.26468872  0.68218371    -0.53600
C1450       C  0.99854438  0.29040850  0.60410080     0.86400
O1451       O  0.57085801  0.24572246  0.63935912    -0.55500
O1452       O  0.51640109  0.20366366  0.68885006    -0.58800
C1453       C  0.94345394  0.43663036  0.87776277    -0.00700
C1454       C  0.96543188  0.45046798  0.85876014     0.07900
C1455       C  0.97551552  0.48515438  0.86297400    -0.06700
C1456       C  0.96334809  0.50609053  0.88519208     0.05300
C1457       C  0.94009017  0.49236308  0.90291697    -0.13900
C1458       C  0.93135804  0.45743646  0.89974875    -0.07300
C1459       C  0.97596563  0.42894792  0.83298662     0.06200
C1460       C  0.95913185  0.43211879  0.79610460    -0.08400
C1461       C  0.96147300  0.40723121  0.77142492     0.01200
C1462       C  0.98103566  0.37874622  0.78359769     0.01100
C1463       C  0.99986355  0.37683765  0.82016208    -0.11900
C1464       C  0.99785435  0.40186161  0.84477239     0.01600
C1465       C  0.94156216  0.41014405  0.73411084     0.40900
C1466       C  0.01686325  0.39835201  0.88228200     0.37500
C1467       C  0.93130575  0.40139308  0.87356163     0.37200
C1468       C  0.97545767  0.54127438  0.88974166     0.38000
N1469       N  0.92553326  0.41244360  0.70420088    -0.42800
N1470       N  0.03202234  0.39566260  0.91237809    -0.43300
N1471       N  0.98537189  0.06940782  0.89336619    -0.40600
N1472       N  0.92162582  0.37315559  0.87019034    -0.42100
H1473       H  0.91342485  0.44656930  0.91308340     0.14100
H1474       H  0.99265963  0.49588039  0.84869734     0.10600
H1475       H  0.94222745  0.45283952  0.78686155     0.11700
H1476       H  0.01467739  0.35484412  0.82976855     0.17500
C1477       C  0.88986526  0.09413333  0.74629997    -0.00700
C1478       C  0.91176088  0.09998658  0.78198709     0.07900
C1479       C  0.94390369  0.11901520  0.78789970    -0.06700
C1480       C  0.95451796  0.13147146  0.75925205     0.05300
C1481       C  0.93444176  0.12230341  0.72362515    -0.13900
C1482       C  0.90160693  0.10454397  0.71774083    -0.07300
C1483       C  0.90263959  0.08494022  0.81314982     0.06200
C1484       C  0.89204921  0.05032011  0.81175513    -0.08400
C1485       C  0.88617978  0.03453670  0.84135881     0.01200
C1486       C  0.89363100  0.05263550  0.87405959     0.01100
C1487       C  0.90198903  0.08751637  0.87506877    -0.11900
C1488       C  0.90593938  0.10388161  0.84486864     0.01600
C1489       C  0.87230435  0.99989126  0.83761944     0.40900
C1490       C  0.91360734  0.14000155  0.84732652     0.37500
C1491       C  0.85496433  0.07795403  0.73814091     0.37200
C1492       C  0.48545693  0.15428335  0.76725857     0.38000
N1493       N  0.86079127  0.47220458  0.83446740    -0.42800
N1494       N  0.91982125  0.16894412  0.84934078    -0.43300
N1495       N  0.51012574  0.17276335  0.77371500    -0.40600
N1496       N  0.82701627  0.06500353  0.73169979    -0.42100
H1497       H  0.88515789  0.09811819  0.69063075     0.14100
H1498       H  0.96105029  0.12403235  0.81503648     0.10600
H1499       H  0.88907770  0.03524053  0.78774512     0.11700
H1500       H  0.90684064  0.10166987  0.90003721     0.17500
C1501       C  0.60804690  0.03157259  0.76517741    -0.00700
C1502       C  0.60787515  0.06738097  0.76259891     0.07900
C1503       C  0.64062252  0.08573733  0.77421203    -0.06700
C1504       C  0.67215728  0.06978481  0.77958274     0.05300
C1505       C  0.67203713  0.03400094  0.77840875    -0.13900
C1506       C  0.64012947  0.01573129  0.77523604    -0.07300
C1507       C  0.57512369  0.08616515  0.74525988     0.06200
C1508       C  0.54294480  0.07637935  0.75064411    -0.08400
C1509       C  0.51123048  0.08975594  0.73045582     0.01200
C1510       C  0.51149382  0.11928446  0.70980745     0.01100
C1511       C  0.54417351  0.12940472  0.70520728    -0.11900
C1512       C  0.57491970  0.11262160  0.72103411     0.01600
C1513       C  0.48010522  0.06833930  0.72735399     0.40900
C1514       C  0.60520937  0.12236211  0.70986643     0.37500
C1515       C  0.57627569  0.00978898  0.75545642     0.37200
C1516       C  0.70335598  0.09126635  0.78301591     0.38000
N1517       N  0.95617053  0.04976267  0.72525428    -0.42800
N1518       N  0.62935141  0.13045823  0.70089669    -0.43300
N1519       N  0.72809167  0.10894553  0.78581510    -0.40600
N1520       N  0.55101235  0.99202627  0.74797404    -0.42100
H1521       H  0.63984540  0.98853464  0.77772405     0.14100
H1522       H  0.64151987  0.11310811  0.77595240     0.10600
H1523       H  0.54187920  0.05659328  0.76917354     0.11700
H1524       H  0.54612452  0.14921739  0.68736493     0.17500
C1525       C  0.58151703  0.39283364  0.76150934    -0.00700
C1526       C  0.58315239  0.40141121  0.72700756     0.07900
C1527       C  0.55508953  0.39027423  0.69681320    -0.06700
C1528       C  0.52619530  0.37079399  0.70066171     0.05300
C1529       C  0.52592533  0.36057941  0.73497525    -0.13900
C1530       C  0.55371909  0.37180715  0.76500807    -0.07300
C1531       C  0.61427157  0.42161306  0.72296986     0.06200
C1532       C  0.64782134  0.41150059  0.74210573    -0.08400
C1533       C  0.67723141  0.43409976  0.74947641     0.01200
C1534       C  0.67389085  0.46677562  0.73502188     0.01100
C1535       C  0.64160020  0.47473834  0.71056853    -0.11900
C1536       C  0.61154911  0.45267744  0.70495385     0.01600
C1537       C  0.70941875  0.42437303  0.77536791     0.40900
C1538       C  0.57806750  0.46393640  0.68333816     0.37500
C1539       C  0.60724205  0.40632964  0.79400308     0.37200
C1540       C  0.49631971  0.36311940  0.66936608     0.38000
N1541       N  0.73504398  0.41664327  0.79637805    -0.42800
N1542       N  0.55125618  0.47308311  0.66600411    -0.43300
N1543       N  0.47213800  0.35740741  0.64432827    -0.40600
N1544       N  0.62774296  0.41719010  0.82005021    -0.42100
H1545       H  0.55351459  0.36434223  0.79142722     0.14100
H1546       H  0.55544988  0.39706606  0.67024266     0.10600
H1547       H  0.65044152  0.38701169  0.75457786     0.11700
H1548       H  0.63908877  0.49953169  0.69881055     0.17500
C1549       C  0.85419941  0.37732193  0.52203204    -0.00700
C1550       C  0.85169908  0.39874779  0.49298010     0.07900
C1551       C  0.87889146  0.40071193  0.47748798    -0.06700
C1552       C  0.90906114  0.38249496  0.49156613     0.05300
C1553       C  0.91217768  0.36185751  0.52158191    -0.13900
C1554       C  0.88421718  0.35916410  0.53605138    -0.07300
C1555       C  0.82176972  0.42079701  0.48062722     0.06200
C1556       C  0.82267588  0.45082605  0.50014849    -0.08400
C1557       C  0.79256904  0.46920780  0.99390613     0.01200
C1558       C  0.76091272  0.45711391  0.46840522     0.01100
C1559       C  0.76039026  0.42808234  0.44768066    -0.11900
C1560       C  0.79073167  0.41011797  0.45326266     0.01600
C1561       C  0.79394210  0.49939397  0.01514961     0.40900
C1562       C  0.78930549  0.38065095  0.43100798     0.37500
C1563       C  0.82692601  0.37510142  0.53900721     0.37200
C1564       C  0.93676977  0.38593152  0.47526033     0.38000
N1565       N  0.79465296  0.02359532  0.03210575    -0.42800
N1566       N  0.78800570  0.35737030  0.41260844    -0.43300
N1567       N  0.95916262  0.38874690  0.96243757    -0.40600
N1568       N  0.80495907  0.37381090  0.55245417    -0.42100
H1569       H  0.88664509  0.34463904  0.55980156     0.14100
H1570       H  0.87697990  0.41720714  0.95510850     0.10600
H1571       H  0.84653088  0.45913005  0.02121120     0.11700
H1572       H  0.73607522  0.41929024  0.42755564     0.17500
C1573       C  0.71015737  0.33635548  0.59404454    -0.00700
C1574       C  0.69162762  0.36544721  0.58169555     0.07900
C1575       C  0.66528885  0.37449934  0.59602849    -0.06700
C1576       C  0.65689562  0.35486426  0.62198032     0.05300
C1577       C  0.67505699  0.32554164  0.63402685    -0.13900
C1578       C  0.70161900  0.31653288  0.61997999    -0.07300
C1579       C  0.69819709  0.38670102  0.55323442     0.06200
C1580       C  0.67252731  0.38599457  0.51944540    -0.08400
C1581       C  0.67473101  0.40933033  0.49350262     0.01200
C1582       C  0.70307689  0.43390103  0.50122244     0.01100
C1583       C  0.72953624  0.43367788  0.53451301    -0.11900
C1584       C  0.72717115  0.41045923  0.56058328     0.01600
C1585       C  0.64711369  0.40817568  0.95948629     0.40900
C1586       C  0.75319749  0.41312598  0.59559869     0.37500
C1587       C  0.73693245  0.32560150  0.57954559     0.37200
C1588       C  0.62823670  0.36427321  0.63441795     0.38000
N1589       N  0.62497283  0.40727694  0.93223362    -0.42800
N1590       N  0.77387845  0.41526089  0.62377436    -0.43300
N1591       N  0.60506857  0.37162012  0.64413570    -0.40600
N1592       N  0.75814377  0.31645260  0.56781024    -0.42100
H1593       H  0.71518005  0.29366558  0.62877611     0.14100
H1594       H  0.65087590  0.39675605  0.58645380     0.10600
H1595       H  0.65001319  0.36796334  0.51385609     0.11700
H1596       H  0.75085219  0.45302071  0.54109612     0.17500
C1597       C  0.68164375  0.23693898  0.50548630    -0.00700
C1598       C  0.67066255  0.21436768  0.52837763     0.07900
C1599       C  0.67183024  0.17942900  0.52266432    -0.06700
C1600       C  0.68438019  0.16701539  0.49571607     0.05300
C1601       C  0.69565696  0.18963924  0.97340508    -0.13900
C1602       C  0.69407137  0.22440481  0.47842204    -0.07300
C1603       C  0.65889346  0.22647811  0.55887708     0.06200
C1604       C  0.63226232  0.24961644  0.55280229    -0.08400
C1605       C  0.62352108  0.26406163  0.58148774     0.01200
C1606       C  0.64068446  0.25468962  0.61685099     0.01100
C1607       C  0.66511855  0.22967984  0.62270005    -0.11900
C1608       C  0.67460805  0.21580847  0.59435045     0.01600
C1609       C  0.59804439  0.28954413  0.57439577     0.40900
C1610       C  0.70241110  0.19254066  0.60295769     0.37500
C1611       C  0.67988486  0.27303254  0.50843429     0.37200
C1612       C  0.68488979  0.13088144  0.99099945     0.38000
N1613       N  0.57757097  0.30998028  0.56863405    -0.42800
N1614       N  0.72456784  0.17376710  0.60988342    -0.43300
N1615       N  0.68533211  0.10193868  0.98723151    -0.40600
N1616       N  0.67789884  0.30198601  0.50980071    -0.42100
H1617       H  0.70188444  0.24176439  0.46064177     0.14100
H1618       H  0.66268934  0.16170029  0.53922183     0.10600
H1619       H  0.61904620  0.25724948  0.52571662     0.11700
H1620       H  0.67894600  0.22307077  0.65001274     0.17500
C1621       C  0.89180621  0.24812738  0.99825658    -0.00700
C1622       C  0.86766561  0.24010311  0.51710986     0.07900
C1623       C  0.87437986  0.25360342  0.55193662    -0.06700
C1624       C  0.90291392  0.27710883  0.56664698     0.05300
C1625       C  0.92442815  0.28796788  0.54590471    -0.13900
C1626       C  0.91946286  0.27237350  0.01245876    -0.07300
C1627       C  0.83328972  0.22151789  0.99897494     0.06200
C1628       C  0.82433646  0.19031661  0.01174410    -0.08400
C1629       C  0.79232613  0.17227558  0.99382404     0.01200
C1630       C  0.76918456  0.18541172  0.96270864     0.01100
C1631       C  0.77760321  0.21700549  0.95080779    -0.11900
C1632       C  0.80903830  0.23522788  0.96878487     0.01600
C1633       C  0.78353795  0.14054889  0.00760942     0.40900
C1634       C  0.81568158  0.26826964  0.95612242     0.37500
C1635       C  0.88797565  0.23261284  0.96374348     0.37200
C1636       C  0.90863465  0.29082716  0.60225368     0.38000
N1637       N  0.77640695  0.11510862  0.01869575    -0.42800
N1638       N  0.82147969  0.29470847  0.94622123    -0.43300
N1639       N  0.91299454  0.30151349  0.63091146    -0.40600
N1640       N  0.88491241  0.22016093  0.93610319    -0.42900
H1641       H  0.93668724  0.28004878  0.99700912     0.14100
H1642       H  0.85637578  0.24706467  0.56689148     0.10600
H1643       H  0.84245997  0.17995613  0.53537132     0.11700
H1644       H  0.75930543  0.22739233  0.92730064     0.17500
N1645       N  0.73675151  0.66756816  0.44248995    -0.02200
C1646       C  0.70457719  0.67702629  0.44198608     0.00400
C1647       C  0.67945462  0.66698131  0.41019374    -0.22500
C1648       C  0.69684239  0.65111637  0.39006145    -0.22700
C1649       C  0.73195697  0.65152371  0.41053711     0.00300
H1650       H  0.65131628  0.66910336  0.40334308     0.14100
H1651       H  0.68451357  0.63749784  0.36489312     0.14100
N1652       N  0.64084866  0.77568160  0.14699498    -0.02200
C1653       C  0.66386132  0.80270587  0.15850913     0.00400
C1654       C  0.66736671  0.81092342  0.19365287    -0.22500
C1655       C  0.64572496  0.78783623  0.20411365    -0.22700
C1656       C  0.62890888  0.76677832  0.17466550     0.00300
H1657       H  0.68153122  0.83296648  0.20889457     0.14100
H1658       H  0.63917799  0.78951488  0.22881742     0.14100
N1659       N  0.72872811  0.97339796  0.96421329    -0.02200
C1660       C  0.70248986  0.96286031  0.97733432     0.00400
C1661       C  0.67648059  0.98578932  0.96937071    -0.22500
C1662       C  0.68741636  0.51139548  0.45104769    -0.22700
C1663       C  0.71948807  0.50300065  0.44811782     0.00300
H1664       H  0.65287361  0.98469442  0.97731806     0.14100
H1665       H  0.67356886  0.53379195  0.44114723     0.14100
N1666       N  0.94956070  0.81643617  0.05669877    -0.02200
C1667       C  0.94598186  0.84734241  0.04162165     0.00400
C1668       C  0.97764905  0.86629356  0.05313156    -0.22500
C1669       C  0.00147054  0.84632911  0.07568417    -0.22700
C1670       C  0.98361118  0.81583979  0.07739916     0.00300
H1671       H  0.98243930  0.89248966  0.04751377     0.14100
H1672       H  0.02835393  0.85401632  0.09090722     0.14100
N1673       N  0.70230699  0.51661744  0.27556247    -0.02200
C1674       C  0.70230950  0.99351663  0.24962365     0.00400
C1675       C  0.73649748  0.98925340  0.24989793    -0.22500
C1676       C  0.75827377  0.50900064  0.27772790    -0.22700
C1677       C  0.73669321  0.52464756  0.29356761     0.00300
H1678       H  0.74489862  0.97063633  0.23446585     0.14100
H1679       H  0.78667617  0.00903624  0.28761529     0.14100
N1680       N  0.47971263  0.63689574  0.19069640    -0.02200
C1681       C  0.94595000  0.63120924  0.19177263     0.00400
C1682       C  0.92222390  0.64237487  0.16082486    -0.22500
C1683       C  0.94141186  0.65763517  0.14133090    -0.22700
C1684       C  0.47641851  0.65642663  0.16125336     0.00300
H1685       H  0.89405189  0.64332064  0.15503367     0.14100
H1686       H  0.93071114  0.67358108  0.11869170     0.14100
N1687       N  0.89737505  0.53572110  0.40733519    -0.02200
C1688       C  0.92180900  0.01318864  0.42261986     0.00400
C1689       C  0.91910674  0.00455017  0.45580622    -0.22500
C1690       C  0.89210264  0.02199429  0.46080102    -0.22700
C1691       C  0.87887658  0.54075986  0.43049113     0.00300
H1692       H  0.93304467  0.98527195  0.47303407     0.14100
H1693       H  0.88107975  0.01863668  0.48257777     0.14100
N1694       N  0.49704298  0.83995050  0.23990406    -0.02200
C1695       C  0.97663355  0.84807037  0.26031441     0.00400
C1696       C  0.95069969  0.82283494  0.25757725    -0.22500
C1697       C  0.95545657  0.79812716  0.23497521    -0.22700
C1698       C  0.48437510  0.80895558  0.22494456     0.00300
H1699       H  0.93077380  0.82228527  0.27097151     0.14100
H1700       H  0.94006165  0.77440070  0.22746517     0.14100
In1701     In  0.77480784  0.56414702  0.39686221     1.36900
C1702       C  0.74026326  0.52421247  0.43058306     0.78900
O1703       O  0.82245386  0.54644966  0.43823391    -0.59600
O1704       O  0.82992241  0.56989917  0.39255805    -0.50500
C1705       C  0.74979278  0.54012203  0.32972707     0.71500
O1706       O  0.73096429  0.54188988  0.34997418    -0.45400
C1707       C  0.75463139  0.62562963  0.40429439     0.76200
O1708       O  0.76243713  0.51305739  0.41714574    -0.57200
O1709       O  0.77769146  0.61239675  0.42929845    -0.47300
O1710       O  0.73642536  0.55539120  0.42721261    -0.53600
C1711       C  0.84326622  0.55373647  0.42061023     0.86400
O1712       O  0.78120634  0.55124810  0.34349417    -0.55500
O1713       O  0.74751545  0.61048744  0.37440594    -0.58800
In1714     In  0.52403814  0.75073158  0.15940886     1.36900
C1715       C  0.49927263  0.78821411  0.20242263     0.78900
O1716       O  0.52802521  0.79592978  0.12732487    -0.59600
O1717       O  0.98258599  0.76291191  0.10745892    -0.50500
C1718       C  0.59272040  0.75281984  0.16976837     0.71500
O1719       O  0.57964235  0.75306157  0.19519785    -0.45400
C1720       C  0.49895362  0.68723645  0.16068163     0.76200
O1721       O  0.53050307  0.79199837  0.20188122    -0.57200
O1722       O  0.49797843  0.70187671  0.13193586    -0.47300
O1723       O  0.98139774  0.76467676  0.18214440    -0.53600
C1724       C  0.99851380  0.79037573  0.10407609     0.86400
O1725       O  0.57082844  0.74570070  0.13934408    -0.55500
O1726       O  0.51638622  0.70362922  0.18883047    -0.58800
C1727       C  0.94343563  0.93659522  0.37775639    -0.00700
C1728       C  0.96540508  0.95043751  0.35874659     0.07900
C1729       C  0.97548101  0.98512569  0.36295765    -0.06700
C1730       C  0.96331225  0.00605911  0.38517694     0.05300
C1731       C  0.94005434  0.99232921  0.40290024    -0.13900
C1732       C  0.93133244  0.95740032  0.39973812    -0.07300
C1733       C  0.97593270  0.92892286  0.33296367     0.06200
C1734       C  0.95910197  0.93210999  0.29608298    -0.08400
C1735       C  0.96143953  0.90723231  0.27139150     0.01200
C1736       C  0.98099320  0.87873935  0.28355110     0.01100
C1737       C  0.99981782  0.87681425  0.32011446    -0.11900
C1738       C  0.99781575  0.90182990  0.34473606     0.01600
C1739       C  0.94153739  0.91016491  0.23407749     0.40900
C1740       C  0.01682949  0.89830617  0.38224216     0.37500
C1741       C  0.93130524  0.90135314  0.37356878     0.37200
C1742       C  0.97542327  0.04124235  0.38973287     0.38000
N1743       N  0.92551698  0.91248034  0.20416728    -0.42800
N1744       N  0.03199437  0.89560359  0.41233472    -0.43300
N1745       N  0.98540681  0.56943981  0.39336914    -0.40600
N1746       N  0.92164232  0.87311106  0.37020998    -0.42100
H1747       H  0.91340336  0.94652975  0.41307536     0.14100
H1748       H  0.99262105  0.99585516  0.34867838     0.10600
H1749       H  0.94220351  0.95283719  0.28684895     0.11700
H1750       H  0.01462606  0.85481421  0.32971094     0.17500
C1751       C  0.88986953  0.59408904  0.24628739    -0.00700
C1752       C  0.91176716  0.59994844  0.28197280     0.07900
C1753       C  0.94391127  0.61897340  0.28788051    -0.06700
C1754       C  0.95452171  0.63142646  0.25922992     0.05300
C1755       C  0.93444208  0.62225571  0.22360529    -0.13900
C1756       C  0.90160890  0.60449475  0.21772540    -0.07300
C1757       C  0.90264467  0.58491786  0.31314102     0.06200
C1758       C  0.89205039  0.55029977  0.31176042    -0.08400
C1759       C  0.88618543  0.53453063  0.34137317     0.01200
C1760       C  0.89364451  0.55264233  0.37406749     0.01100
C1761       C  0.90200400  0.58752134  0.37506119    -0.11900
C1762       C  0.90595046  0.60387271  0.34485315     0.01600
C1763       C  0.87230940  0.49988574  0.33765098     0.40900
C1764       C  0.91362368  0.63999157  0.34729606     0.37500
C1765       C  0.85496846  0.57791151  0.23813338     0.37200
C1766       C  0.48545678  0.65424216  0.26723020     0.38000
N1767       N  0.86078890  0.97220883  0.33442367    -0.42800
N1768       N  0.91984305  0.66893343  0.34929819    -0.43300
N1769       N  0.51012173  0.67272660  0.27368169    -0.40600
N1770       N  0.82701978  0.56496303  0.23169638    -0.42100
H1771       H  0.88515696  0.59806748  0.19061509     0.14100
H1772       H  0.96105934  0.62399343  0.31501488     0.10600
H1773       H  0.88907419  0.53521119  0.28775648     0.11700
H1774       H  0.90686327  0.60168587  0.40002853     0.17500
C1775       C  0.60806400  0.53154173  0.26517966    -0.00700
C1776       C  0.60787885  0.56734800  0.26257349     0.07900
C1777       C  0.64062080  0.58571508  0.27417927    -0.06700
C1778       C  0.67216378  0.56977087  0.27957217     0.05300
C1779       C  0.67205573  0.53398783  0.27841285    -0.13900
C1780       C  0.64015333  0.51571085  0.27524566    -0.07300
C1781       C  0.57512018  0.58612041  0.24522192     0.06200
C1782       C  0.54294298  0.57633495  0.25061109    -0.08400
C1783       C  0.51122667  0.58970970  0.23042348     0.01200
C1784       C  0.51148624  0.61923685  0.20977155     0.01100
C1785       C  0.54416242  0.62935230  0.20516189    -0.11900
C1786       C  0.57490989  0.61257014  0.22098615     0.01600
C1787       C  0.48010330  0.56829215  0.22732789     0.40900
C1788       C  0.60519463  0.62230357  0.20980811     0.37500
C1789       C  0.57630056  0.50974808  0.25548928     0.37200
C1790       C  0.70336163  0.59125862  0.28302168     0.38000
N1791       N  0.95617042  0.54971471  0.22523397    -0.42800
N1792       N  0.62933218  0.63039436  0.20082880    -0.43300
N1793       N  0.72809741  0.60894270  0.28583672    -0.40600
N1794       N  0.55104511  0.49197546  0.24803515    -0.42100
H1795       H  0.63987977  0.48851570  0.27774616     0.14100
H1796       H  0.64150844  0.61308579  0.27590396     0.10600
H1797       H  0.54187979  0.55655780  0.26914371     0.11700
H1798       H  0.54610860  0.64916840  0.18730962     0.17500
C1799       C  0.58146111  0.89285329  0.26146921    -0.00700
C1800       C  0.58311031  0.90141492  0.22696836     0.07900
C1801       C  0.55505944  0.89026271  0.19677147    -0.06700
C1802       C  0.52616628  0.87077780  0.20061511     0.05300
C1803       C  0.52588723  0.86057234  0.23492988    -0.13900
C1804       C  0.55366867  0.87181815  0.26496515    -0.07300
C1805       C  0.61423372  0.92161515  0.22293982     0.06200
C1806       C  0.64777958  0.91150397  0.24209133    -0.08400
C1807       C  0.67718977  0.93410447  0.24947477     0.01200
C1808       C  0.67385552  0.96677961  0.23501823     0.01100
C1809       C  0.64156945  0.97474325  0.21055585    -0.11900
C1810       C  0.61151723  0.95268060  0.20492765     0.01600
C1811       C  0.70936888  0.92437936  0.27538138     0.40900
C1812       C  0.57803861  0.96393635  0.18330031     0.37500
C1813       C  0.60716214  0.90638303  0.29396174     0.37200
C1814       C  0.49629737  0.86309399  0.16931614     0.38000
N1815       N  0.73498723  0.91665153  0.29640387    -0.42800
N1816       N  0.55122867  0.97307825  0.16595720    -0.43300
N1817       N  0.47211883  0.85737543  0.14427665    -0.40600
N1818       N  0.62764257  0.91727496  0.32000601    -0.42100
H1819       H  0.55345730  0.86436275  0.29138816     0.14100
H1820       H  0.55542578  0.89705291  0.17019467     0.10600
H1821       H  0.65039389  0.88701906  0.25456523     0.11700
H1822       H  0.63906235  0.99953625  0.19879760     0.17500
C1823       C  0.85419450  0.87738582  0.02214037    -0.00700
C1824       C  0.85166348  0.89875814  0.99304015     0.07900
C1825       C  0.87882419  0.90066834  0.97750281    -0.06700
C1826       C  0.90899464  0.88245364  0.99158309     0.05300
C1827       C  0.91214042  0.86186846  0.02164048    -0.13900
C1828       C  0.88421150  0.85922637  0.03615743    -0.07300
C1829       C  0.82173164  0.92080165  0.98066838     0.06200
C1830       C  0.82260830  0.95082051  0.00019546    -0.08400
C1831       C  0.79249846  0.96920353  0.49391140     0.01200
C1832       C  0.76086678  0.95711709  0.96837018     0.01100
C1833       C  0.76037604  0.92809794  0.94763864    -0.11900
C1834       C  0.79072477  0.91013756  0.95325586     0.01600
C1835       C  0.79384405  0.99938962  0.51514539     0.40900
C1836       C  0.78933690  0.88069131  0.93098469     0.37500
C1837       C  0.82695006  0.87521355  0.03915571     0.37200
C1838       C  0.93667377  0.88583553  0.97523380     0.38000
N1839       N  0.79477014  0.52359667  0.53212000    -0.42800
N1840       N  0.78807063  0.85742974  0.91257106    -0.43300
N1841       N  0.95904550  0.88860442  0.46237765    -0.40600
N1842       N  0.80500736  0.87395956  0.05263518    -0.42100
H1843       H  0.88666465  0.84473482  0.05993749     0.14100
H1844       H  0.87688828  0.91712010  0.45508493     0.10600
H1845       H  0.84644464  0.95911893  0.52128974     0.11700
H1846       H  0.73608451  0.91931520  0.92748262     0.17500
C1847       C  0.71009414  0.83638875  0.09400378    -0.00700
C1848       C  0.69153646  0.86545586  0.08161360     0.07900
C1849       C  0.66516673  0.87449343  0.09590864    -0.06700
C1850       C  0.65677401  0.85486910  0.12186781     0.05300
C1851       C  0.67496719  0.82557338  0.13395954    -0.13900
C1852       C  0.70155632  0.81657710  0.11994663    -0.07300
C1853       C  0.69811718  0.88670506  0.05315588     0.06200
C1854       C  0.67248022  0.88596000  0.01934492    -0.08400
C1855       C  0.67469064  0.90928758  0.99339724     0.01200
C1856       C  0.70300529  0.93389286  0.00113816     0.01100
C1857       C  0.72943183  0.93371107  0.03445382    -0.11900
C1858       C  0.72706422  0.91049643  0.06052563     0.01600
C1859       C  0.64711561  0.90808441  0.45934824     0.40900
C1860       C  0.75305848  0.91319612  0.09555901     0.37500
C1861       C  0.73690073  0.82564997  0.07954169     0.37200
C1862       C  0.62808482  0.86425938  0.13426641     0.38000
N1863       N  0.62501057  0.90714587  0.43206932    -0.42800
N1864       N  0.77371460  0.91535569  0.12374806    -0.43300
N1865       N  0.60489133  0.87158989  0.14395130    -0.40600
N1866       N  0.75813738  0.81651434  0.06783518    -0.42100
H1867       H  0.71514116  0.79372792  0.12877687     0.14100
H1868       H  0.65073320  0.89672937  0.08630172     0.10600
H1869       H  0.64998575  0.86790337  0.01373951     0.11700
H1870       H  0.75072359  0.95308053  0.04105123     0.17500
C1871       C  0.68163491  0.73693685  0.00548257    -0.00700
C1872       C  0.67065157  0.71437117  0.02837742     0.07900
C1873       C  0.67181409  0.67943117  0.02266828    -0.06700
C1874       C  0.68435756  0.66701094  0.99571785     0.05300
C1875       C  0.69563502  0.68962711  0.47340251    -0.13900
C1876       C  0.69405807  0.72439571  0.97841780    -0.07300
C1877       C  0.65887609  0.72648773  0.05887066     0.06200
C1878       C  0.63223973  0.74962081  0.05278361    -0.08400
C1879       C  0.62348358  0.76406555  0.08146004     0.01200
C1880       C  0.64064278  0.75470395  0.11682845     0.01100
C1881       C  0.66508340  0.72969922  0.12269000    -0.11900
C1882       C  0.67458256  0.71582355  0.09434777     0.01600
C1883       C  0.59799074  0.78953310  0.07435133     0.40900
C1884       C  0.70238317  0.69255351  0.10296596     0.37500
C1885       C  0.67988024  0.77303110  0.00842602     0.37200
C1886       C  0.68485699  0.63087469  0.49100294     0.38000
N1887       N  0.57750258  0.80995575  0.06857205    -0.42800
N1888       N  0.72453706  0.67377669  0.10990010    -0.43300
N1889       N  0.68529006  0.60193081  0.48723518    -0.40600
N1890       N  0.67789774  0.80198524  0.00978762    -0.42100
H1891       H  0.70187325  0.74175220  0.96063392     0.14100
H1892       H  0.66267178  0.66170821  0.03922653     0.10600
H1893       H  0.61902747  0.75724747  0.02569393     0.11700
H1894       H  0.67890551  0.72309626  0.15000457     0.17500
C1895       C  0.89175247  0.74815396  0.49826522    -0.00700
C1896       C  0.86760915  0.74012642  0.01711278     0.07900
C1897       C  0.87431523  0.75362277  0.05194050    -0.06700
C1898       C  0.90285003  0.77712510  0.06665939     0.05300
C1899       C  0.92437549  0.78797857  0.04592754    -0.13900
C1900       C  0.91941378  0.77239025  0.51247984    -0.07300
C1901       C  0.83324141  0.72153072  0.49897625     0.06200
C1902       C  0.82430514  0.69032178  0.51174204    -0.08400
C1903       C  0.79230497  0.67226720  0.49381876     0.01200
C1904       C  0.76915696  0.68539858  0.46270500     0.01100
C1905       C  0.77755969  0.71699863  0.45080615    -0.11900
C1906       C  0.80898548  0.73523346  0.46878526     0.01600
C1907       C  0.78353525  0.64053139  0.50759948     0.40900
C1908       C  0.81561541  0.76827768  0.45612018     0.37500
C1909       C  0.88791951  0.73265662  0.46374390     0.37200
C1910       C  0.90856404  0.79083975  0.10226662     0.38000
N1911       N  0.77642058  0.61508322  0.51868245    -0.42800
N1912       N  0.82140188  0.79471775  0.44621435    -0.43300
N1913       N  0.91291701  0.80152429  0.13092378    -0.40600
N1914       N  0.88485296  0.72022194  0.43609482    -0.42900
H1915       H  0.93664626  0.78006681  0.49703522     0.14100
H1916       H  0.85630896  0.74708291  0.06688721     0.10600
H1917       H  0.84243362  0.67996702  0.03536896     0.11700
H1918       H  0.75925765  0.72737962  0.42730030     0.17500
N1919       N  0.73675126  0.66756949  0.94249060    -0.02200
C1920       C  0.70457687  0.67702787  0.94198666     0.00400
C1921       C  0.67945450  0.66698224  0.91019479    -0.22500
C1922       C  0.69684178  0.65111663  0.89006280    -0.22700
C1923       C  0.73195656  0.65152421  0.91053827     0.00300
H1924       H  0.65131313  0.66910436  0.90334367     0.14100
H1925       H  0.68451330  0.63749741  0.86489504     0.14100
N1926       N  0.64084822  0.77567931  0.64699417    -0.02200
C1927       C  0.66386142  0.80270305  0.65850837     0.00400
C1928       C  0.66736764  0.81092035  0.69365245    -0.22500
C1929       C  0.64572565  0.78783312  0.70411333    -0.22700
C1930       C  0.62890882  0.76677588  0.67466487     0.00300
H1931       H  0.68153184  0.83296180  0.70889348     0.14100
H1932       H  0.63917950  0.78951165  0.72881669     0.14100
N1933       N  0.72872929  0.97339727  0.46421470    -0.02200
C1934       C  0.70249123  0.96285973  0.47733599     0.00400
C1935       C  0.67648241  0.98578918  0.46937346    -0.22500
C1936       C  0.68741846  0.51139569  0.95105136    -0.22700
C1937       C  0.71948954  0.50300117  0.94812092     0.00300
H1938       H  0.65287625  0.98469453  0.47732097     0.14100
H1939       H  0.67356900  0.53379583  0.94115022     0.14100
N1940       N  0.94956110  0.81643467  0.55669788    -0.02200
C1941       C  0.94598217  0.84734105  0.54162088     0.00400
C1942       C  0.97764918  0.86629230  0.55313133    -0.22500
C1943       C  0.00147036  0.84632818  0.57568397    -0.22700
C1944       C  0.98361158  0.81583869  0.57739887     0.00300
H1945       H  0.98243920  0.89249002  0.54751340     0.14100
H1946       H  0.02835578  0.85401629  0.59090865     0.14100
N1947       N  0.70230746  0.51661776  0.77556449    -0.02200
C1948       C  0.70230805  0.99351645  0.74962248     0.00400
C1949       C  0.73649624  0.98925263  0.74989643    -0.22500
C1950       C  0.75827441  0.50900127  0.77772973    -0.22700
C1951       C  0.73669356  0.52464785  0.79356966     0.00300
H1952       H  0.74489579  0.97063884  0.73446740     0.14100
H1953       H  0.78667469  0.00903597  0.78761358     0.14100
N1954       N  0.47971290  0.63689541  0.69069774    -0.02200
C1955       C  0.94594969  0.63120857  0.69177347     0.00400
C1956       C  0.92222421  0.64237375  0.66082550    -0.22500
C1957       C  0.94141180  0.65763386  0.64133145    -0.22700
C1958       C  0.47641882  0.65642588  0.66125436     0.00300
H1959       H  0.89404902  0.64331935  0.65503335     0.14100
H1960       H  0.93071130  0.67357944  0.61869185     0.14100
N1961       N  0.89737498  0.53572175  0.90733593    -0.02200
C1962       C  0.92180754  0.01318823  0.92261805     0.00400
C1963       C  0.91910531  0.00454962  0.95580448    -0.22500
C1964       C  0.89210107  0.02199409  0.96079940    -0.22700
C1965       C  0.87887707  0.54076076  0.93049222     0.00300
H1966       H  0.93304199  0.98527231  0.97303141     0.14100
H1967       H  0.88107920  0.01863662  0.98257416     0.14100
N1968       N  0.49704201  0.83994953  0.73990343    -0.02200
C1969       C  0.97663301  0.84806916  0.76031397     0.00400
C1970       C  0.95069950  0.82283344  0.75757748    -0.22500
C1971       C  0.95545642  0.79812560  0.73497502    -0.22700
C1972       C  0.48437448  0.80895456  0.72494401     0.00300
H1973       H  0.93077479  0.82228357  0.77097080     0.14100
H1974       H  0.94006300  0.77440038  0.72746603     0.14100
In1975     In  0.77480834  0.56414742  0.89686438     1.36900
C1976       C  0.74026461  0.52421267  0.93058589     0.78900
O1977       O  0.82245466  0.54645041  0.93823598    -0.59600
O1978       O  0.82992271  0.56989993  0.89255988    -0.50500
C1979       C  0.74979323  0.54012231  0.82972919     0.71500
O1980       O  0.73096493  0.54188952  0.84997656    -0.45400
C1981       C  0.75463105  0.62562996  0.90429590     0.76200
O1982       O  0.76243819  0.51305776  0.91714821    -0.57200
O1983       O  0.77769144  0.61239754  0.92930011    -0.47300
O1984       O  0.73642655  0.55539142  0.92721543    -0.53600
C1985       C  0.84326669  0.55373709  0.92061198     0.86400
O1986       O  0.78120665  0.55124878  0.84349617    -0.55500
O1987       O  0.74751513  0.61048735  0.87440766    -0.58800
In1988     In  0.52403804  0.75073069  0.65940872     1.36900
C1989       C  0.49927213  0.78821318  0.70242216     0.78900
O1990       O  0.52802464  0.79592950  0.62732556    -0.59600
O1991       O  0.98258668  0.76291023  0.60745769    -0.50500
C1992       C  0.59272024  0.75281826  0.66976799     0.71500
O1993       O  0.57964241  0.75306040  0.69519761    -0.45400
C1994       C  0.49895361  0.68723579  0.66068229     0.76200
O1995       O  0.53050259  0.79199756  0.70188083    -0.57200
O1996       O  0.49797871  0.70187554  0.63193633    -0.47300
O1997       O  0.98139726  0.76467575  0.68214365    -0.53600
C1998       C  0.99851386  0.79037459  0.60407570     0.86400
O1999       O  0.57082812  0.74569924  0.63934377    -0.55500
O2000       O  0.51638585  0.70362893  0.68883103    -0.58800
C2001       C  0.94343385  0.93659451  0.87775503    -0.00700
C2002       C  0.96540387  0.95043670  0.85874547     0.07900
C2003       C  0.97547989  0.98512463  0.86295682    -0.06700
C2004       C  0.96331116  0.00605828  0.88517557     0.05300
C2005       C  0.94005275  0.99232848  0.90289870    -0.13900
C2006       C  0.93133061  0.95739988  0.89973616    -0.07300
C2007       C  0.97593155  0.92892199  0.83296276     0.06200
C2008       C  0.95910176  0.93210880  0.79608219    -0.08400
C2009       C  0.96143918  0.90723141  0.77139078     0.01200
C2010       C  0.98099258  0.87873805  0.78355071     0.01100
C2011       C  0.99981660  0.87681293  0.82011410    -0.11900
C2012       C  0.99781442  0.90182861  0.84473554     0.01600
C2013       C  0.94153817  0.91016410  0.73407657     0.40900
C2014       C  0.01682796  0.89830514  0.88224179     0.37500
C2015       C  0.93130330  0.90135251  0.87356707     0.37200
C2016       C  0.97542250  0.04124150  0.88973181     0.38000
N2017       N  0.92551838  0.91247963  0.70416617    -0.42800
N2018       N  0.03199260  0.89560263  0.91233443    -0.43300
N2019       N  0.98540607  0.56944107  0.89336856    -0.40600
N2020       N  0.92164019  0.87311048  0.87020841    -0.42100
H2021       H  0.91339990  0.94652850  0.91307476     0.14100
H2022       H  0.99262146  0.99585481  0.84867653     0.10600
H2023       H  0.94220122  0.95283898  0.78684668     0.11700
H2024       H  0.01462491  0.85481191  0.82971112     0.17500
C2025       C  0.88986899  0.59408924  0.74628815    -0.00700
C2026       C  0.91176655  0.59994857  0.78197363     0.07900
C2027       C  0.94391057  0.61897304  0.78788107    -0.06700
C2028       C  0.95452154  0.63142601  0.75923113     0.05300
C2029       C  0.93444198  0.62225540  0.72360638    -0.13900
C2030       C  0.90160834  0.60449459  0.71772581    -0.07300
C2031       C  0.90264355  0.58491800  0.81314140     0.06200
C2032       C  0.89204912  0.55030000  0.81176091    -0.08400
C2033       C  0.88618456  0.53453084  0.84137383     0.01200
C2034       C  0.89364385  0.55264273  0.87406792     0.01100
C2035       C  0.90200325  0.58752178  0.87506175    -0.11900
C2036       C  0.90594941  0.60387297  0.84485336     0.01600
C2037       C  0.87230874  0.49988601  0.83765203     0.40900
C2038       C  0.91362300  0.63999173  0.84729636     0.37500
C2039       C  0.85496745  0.57791217  0.73813375     0.37200
C2040       C  0.48545675  0.65424165  0.76723164     0.38000
N2041       N  0.86078749  0.97220935  0.83442125    -0.42800
N2042       N  0.91984266  0.66893363  0.84929839    -0.43300
N2043       N  0.51012179  0.67272588  0.77368340    -0.40600
N2044       N  0.82701857  0.56496412  0.73169655    -0.42100
H2045       H  0.88515848  0.59806802  0.69061871     0.14100
H2046       H  0.96106085  0.62399372  0.81501931     0.10600
H2047       H  0.88907283  0.53521102  0.78775658     0.11700
H2048       H  0.90686254  0.60168543  0.90002748     0.17500
C2049       C  0.60806450  0.53154136  0.76518185    -0.00700
C2050       C  0.60787920  0.56734768  0.76257578     0.07900
C2051       C  0.64062114  0.58571534  0.77418173    -0.06700
C2052       C  0.67216412  0.56977073  0.77957465     0.05300
C2053       C  0.67205615  0.53398764  0.77841505    -0.13900
C2054       C  0.64015377  0.51571117  0.77524789    -0.07300
C2055       C  0.57512054  0.58612015  0.74522445     0.06200
C2056       C  0.54294319  0.57633492  0.75061277    -0.08400
C2057       C  0.51122686  0.58970920  0.73042539     0.01200
C2058       C  0.51148643  0.61923639  0.70977358     0.01100
C2059       C  0.54416279  0.62935267  0.70516413    -0.11900
C2060       C  0.57491034  0.61257008  0.72098893     0.01600
C2061       C  0.48010341  0.56829191  0.72732935     0.40900
C2062       C  0.60519523  0.62230417  0.70981104     0.37500
C2063       C  0.57630098  0.50974783  0.75549184     0.37200
C2064       C  0.70336209  0.59125895  0.78302409     0.38000
N2065       N  0.95617041  0.54971439  0.72523523    -0.42800
N2066       N  0.62933283  0.63039534  0.70083199    -0.43300
N2067       N  0.72809762  0.60894304  0.78583906    -0.40600
N2068       N  0.55104560  0.49197538  0.74803786    -0.42100
H2069       H  0.63988027  0.48851170  0.77774857     0.14100
H2070       H  0.64150858  0.61308257  0.77590630     0.10600
H2071       H  0.54187988  0.55655439  0.76914809     0.11700
H2072       H  0.54610904  0.64916522  0.68731534     0.17500
C2073       C  0.58146038  0.89285213  0.76146862    -0.00700
C2074       C  0.58310954  0.90141384  0.72696824     0.07900
C2075       C  0.55505852  0.89026206  0.69677054    -0.06700
C2076       C  0.52616511  0.87077697  0.70061475     0.05300
C2077       C  0.52588618  0.86057147  0.73492902    -0.13900
C2078       C  0.55366778  0.87181688  0.76496483    -0.07300
C2079       C  0.61423274  0.92161435  0.72293939     0.06200
C2080       C  0.64777867  0.91150332  0.74209096    -0.08400
C2081       C  0.67718871  0.93410401  0.74947435     0.01200
C2082       C  0.67385428  0.96677894  0.73501742     0.01100
C2083       C  0.64156809  0.97474245  0.71055493    -0.11900
C2084       C  0.61151595  0.95267968  0.70492714     0.01600
C2085       C  0.70936783  0.92437925  0.77538119     0.40900
C2086       C  0.57803738  0.96393527  0.68330001     0.37500
C2087       C  0.60716147  0.90638105  0.79396140     0.37200
C2088       C  0.49629627  0.86309350  0.66931542     0.38000
N2089       N  0.73498606  0.91665171  0.79640401    -0.42800
N2090       N  0.55122717  0.97307718  0.66595711    -0.43300
N2091       N  0.47211774  0.85737527  0.64427588    -0.40600
N2092       N  0.62764209  0.91727239  0.82000592    -0.42100
H2093       H  0.55345660  0.86436231  0.79138490     0.14100
H2094       H  0.55542495  0.89705085  0.67019874     0.10600
H2095       H  0.65039306  0.88701874  0.75456514     0.11700
H2096       H  0.63906084  0.99953455  0.69879672     0.17500
C2097       C  0.85419439  0.87738396  0.52213876    -0.00700
C2098       C  0.85166390  0.89875687  0.49303958     0.07900
C2099       C  0.87882473  0.90066750  0.47750211    -0.06700
C2100       C  0.90899521  0.88245249  0.49158248     0.05300
C2101       C  0.91214065  0.86186692  0.52163908    -0.13900
C2102       C  0.88421148  0.85922399  0.53615626    -0.07300
C2103       C  0.82173247  0.92080082  0.48066834     0.06200
C2104       C  0.82260889  0.95081872  0.50019655    -0.08400
C2105       C  0.79249752  0.96920518  0.99390954     0.01200
C2106       C  0.76086783  0.95711622  0.46837112     0.01100
C2107       C  0.76037720  0.92809813  0.44763834    -0.11900
C2108       C  0.79072572  0.91013769  0.45325489     0.01600
C2109       C  0.79384322  0.99939240  0.01514220     0.40900
C2110       C  0.78933785  0.88069238  0.43098240     0.37500
C2111       C  0.82695000  0.87521137  0.53915411     0.37200
C2112       C  0.93667477  0.88583504  0.47523378     0.38000
N2113       N  0.79477260  0.52359474  0.03212405    -0.42800
N2114       N  0.78807196  0.85743154  0.41256793    -0.43300
N2115       N  0.95904434  0.88860430  0.96237733    -0.40600
N2116       N  0.80500716  0.87395707  0.55263350    -0.42100
H2117       H  0.88666371  0.84473433  0.55993141     0.14100
H2118       H  0.87688745  0.91712190  0.95508396     0.10600
H2119       H  0.84644289  0.95912093  0.02128682     0.11700
H2120       H  0.73608516  0.91931593  0.42748104     0.17500
C2121       C  0.71009365  0.83638702  0.59400302    -0.00700
C2122       C  0.69153577  0.86545386  0.58161302     0.07900
C2123       C  0.66516580  0.87449084  0.59590800    -0.06700
C2124       C  0.65677337  0.85486647  0.62186725     0.05300
C2125       C  0.67496678  0.82557105  0.63395879    -0.13900
C2126       C  0.70155622  0.81657485  0.61994601    -0.07300
C2127       C  0.69811666  0.88670348  0.55315581     0.06200
C2128       C  0.67248041  0.88595911  0.51934469    -0.08400
C2129       C  0.67469131  0.90928673  0.49339747     0.01200
C2130       C  0.70300630  0.93389203  0.50113923     0.01100
C2131       C  0.72943217  0.93370950  0.53445509    -0.11900
C2132       C  0.72706411  0.91049474  0.56052634     0.01600
C2133       C  0.64711474  0.90808450  0.95934828     0.40900
C2134       C  0.75305783  0.91319398  0.59556006     0.37500
C2135       C  0.73690041  0.82564846  0.57954096     0.37200
C2136       C  0.62808413  0.86425630  0.63426593     0.38000
N2137       N  0.62500934  0.90714549  0.93206945    -0.42800
N2138       N  0.77371355  0.91535301  0.62374937    -0.43300
N2139       N  0.60489065  0.87158647  0.64395108    -0.40600
N2140       N  0.75813719  0.81651321  0.56783445    -0.42100
H2141       H  0.71513964  0.79372807  0.62877519     0.14100
H2142       H  0.65073210  0.89672728  0.58630145     0.10600
H2143       H  0.64998423  0.86790103  0.51373823     0.11700
H2144       H  0.75072551  0.95308040  0.54105383     0.17500
C2145       C  0.68163467  0.73693509  0.50548180    -0.00700
C2146       C  0.67065110  0.71436928  0.52837645     0.07900
C2147       C  0.67181325  0.67942919  0.52266704    -0.06700
C2148       C  0.68435713  0.66700919  0.49571671     0.05300
C2149       C  0.69563511  0.68962871  0.97340334    -0.13900
C2150       C  0.69405805  0.72439386  0.47841748    -0.07300
C2151       C  0.65887542  0.72648554  0.55886980     0.06200
C2152       C  0.63223917  0.74961889  0.55278267    -0.08400
C2153       C  0.62348320  0.76406363  0.58145930     0.01200
C2154       C  0.64064208  0.75470158  0.61682771     0.01100
C2155       C  0.66508232  0.72969673  0.62268883    -0.11900
C2156       C  0.67458165  0.71582108  0.59434691     0.01600
C2157       C  0.59799047  0.78953122  0.57435067     0.40900
C2158       C  0.70238185  0.69255052  0.60296484     0.37500
C2159       C  0.67988007  0.77302922  0.50842551     0.37200
C2160       C  0.68485737  0.63087652  0.99100405     0.38000
N2161       N  0.57750250  0.80995410  0.56857140    -0.42800
N2162       N  0.72453546  0.67377358  0.60989895    -0.43300
N2163       N  0.68529043  0.60193266  0.98723620    -0.40600
N2164       N  0.67789760  0.80198338  0.50978707    -0.42100
H2165       H  0.70187465  0.74175216  0.46063252     0.14100
H2166       H  0.66267117  0.66170713  0.53922412     0.10600
H2167       H  0.61902775  0.75724560  0.52569406     0.11700
H2168       H  0.67890569  0.72309329  0.65000556     0.17500
C2169       C  0.89175278  0.74815514  0.99826632    -0.00700
C2170       C  0.86760928  0.74012481  0.51711216     0.07900
C2171       C  0.87431616  0.75362072  0.55193996    -0.06700
C2172       C  0.90285084  0.77712300  0.56665887     0.05300
C2173       C  0.92437590  0.78797697  0.54592666    -0.13900
C2174       C  0.91941395  0.77239140  0.01248112    -0.07300
C2175       C  0.83324116  0.72153227  0.99897656     0.06200
C2176       C  0.82430428  0.69032398  0.01174351    -0.08400
C2177       C  0.79230405  0.67226931  0.99382004     0.01200
C2178       C  0.76915690  0.68539983  0.96270542     0.01100
C2179       C  0.77756022  0.71699920  0.95080528    -0.11900
C2180       C  0.80898607  0.73523411  0.96878451     0.01600
C2181       C  0.78353391  0.64053422  0.00760163     0.40900
C2182       C  0.81561686  0.76827742  0.95611793     0.37500
C2183       C  0.88792034  0.73265720  0.96374547     0.37200
C2184       C  0.90856518  0.79083748  0.60226601     0.38000
N2185       N  0.77641867  0.61508650  0.01868521    -0.42800
N2186       N  0.82140411  0.79471669  0.94621090    -0.43300
N2187       N  0.91291839  0.80152173  0.63092353    -0.40600
N2188       N  0.88485421  0.72022225  0.93609656    -0.42900
H2189       H  0.93664730  0.78006793  0.99703615     0.14100
H2190       H  0.85630929  0.74707984  0.56688834     0.10600
H2191       H  0.84243592  0.67996387  0.53536815     0.11700
H2192       H  0.75925944  0.72737925  0.92729956     0.17500
loop_ 
_geom_bond_atom_site_label_1 
_geom_bond_atom_site_label_2 
_geom_bond_distance 
_geom_bond_site_symmetry_2 
_ccdc_geom_bond_type 
N1            C5   1.357       .  A
N1            C2   1.355       .  A
N1          C260   1.438       .  S
C2            C3   1.378       .  A
C2          C231   1.477       .  S
C3            C4   1.373       .  A
C3            H6   1.082       .  S
C4            C5   1.385       .  A
C4            H7   1.083       .  S
C5           C63   1.474       .  S
N8           C12   1.357       .  A
N8            C9   1.352       .  A
N8          C236   1.440       .  S
C9           C10   1.377       .  A
C9          C207   1.477       .  S
C10          C11   1.377       .  A
C10          H13   1.082       .  S
C11          C12   1.389       .  A
C11          H14   1.083       .  S
C12          C74   1.477       .  S
N15          C16   1.354       .  A
N15         C841   1.352       .  A
N15         C188   1.435       .  S
C16          C17   1.383       .  A
C16         C212   1.482   1_556  S
C17         C840   1.377       .  A
C17          H20   1.082       .  S
C18          C19   1.382       .  A
C18         C839   1.377   1_545  A
C18          H21   1.082       .  S
C19         N837   1.352   1_545  A
C19          C58   1.469       .  S
N22          C26   1.355       .  A
N22          C23   1.359       .  A
N22         C255   1.440       .  S
C23          C24   1.383       .  A
C23         C183   1.488       .  S
C24          C25   1.374       .  A
C24          H27   1.082       .  S
C25          C26   1.383       .  A
C25          H28   1.082       .  S
C26          C80   1.471       .  S
N29          C33   1.357       .  A
N29         C578   1.365   1_545  A
N29         C135   1.458       .  S
C30         N577   1.365       .  A
C30          C31   1.385       .  A
C30         C164   1.485       .  S
C31         C580   1.374       .  A
C31          H34   1.082       .  S
C32          C33   1.380       .  A
C32         C579   1.374   1_545  A
C32         H583   1.083       .  S
C33          C61   1.469       .  S
H35         C580   1.082       .  S
N36          C40   1.371       .  A
N36        C1133   1.372       .  A
N36         C140   1.477   1_655  S
C37        N1132   1.372       .  A
C37          C38   1.382       .  A
C37         C111   1.498       .  S
C38          C39   1.364       .  A
C38          H41   1.082       .  S
C39        C1136   1.381       .  A
C39          H42   1.083       .  S
C40        C1135   1.381       .  A
C40          C76   1.483       .  S
N43          C47   1.358       .  A
N43         C592   1.361       .  A
N43         C116   1.442       .  S
C44         N591   1.361       .  A
C44          C45   1.384       .  A
C44          C87   1.491       .  S
C45          C46   1.377       .  A
C45          H48   1.083       .  S
C46         C595   1.383       .  A
C46          H49   1.083       .  S
C47         C594   1.383       .  A
C47          C67   1.479       .  S
N50          C54   1.360       .  A
N50        C1147   1.358       .  A
N50         C159   1.442   1_655  S
C51        N1146   1.358       .  A
C51          C52   1.381       .  A
C51          C92   1.484       .  S
C52          C53   1.377       .  A
C52          H55   1.082       .  S
C53        C1150   1.382       .  A
C53          H56   1.082       .  S
C54        C1149   1.382       .  A
C54          C71   1.478       .  S
In57         O59   2.238       .  S
In57         O60   2.264       .  S
In57         O68   2.247       .  S
In57         O62   2.248       .  S
In57         O64   2.266       .  S
In57         O65   2.268       .  S
In57         O66   2.232       .  S
In57         O69   2.233       .  S
C58          O64   1.262       .  A
C58          O66   1.256       .  A
O59          C67   1.261       .  A
O60          C67   1.261       .  A
C61          O68   1.258       .  A
C61          O62   1.257       .  A
C63          O65   1.260       .  A
C63          O69   1.258       .  A
In70         O72   2.223       .  S
In70         O81   2.263       .  S
In70         O75   2.230       .  S
In70         O77   2.274       .  S
In70         O78   2.248   1_455  S
In70         O82   2.258       .  S
In70       O1169   2.269   1_455  S
In70       O1175   2.249   1_455  S
C71          O77   1.258   1_655  A
C71        O1175   1.257       .  A
O72        C1176   1.256   1_455  A
O73       In1166   2.269       .  S
O73          C80   1.260       .  A
C74          O81   1.262       .  A
C74          O75   1.263       .  A
C76          O78   1.263       .  A
C76          O82   1.262   1_655  A
O79       In1166   2.249       .  S
O79        C1167   1.257       .  A
C80        O1168   1.256       .  A
C83          C84   1.411       .  A
C83          C88   1.397       .  A
C83          C97   1.445       .  S
C84          C85   1.405       .  A
C84          C89   1.490       .  S
C85          C86   1.409       .  A
C85         H104   1.084       .  S
C86          C87   1.414       .  A
C86          C98   1.442       .  S
C87          C88   1.404       .  A
C88         H103   1.085       .  S
C89          C90   1.404       .  A
C89          C94   1.411       .  A
C90          C91   1.405       .  A
C90         H105   1.085       .  S
C91          C92   1.410       .  A
C91          C95   1.443       .  S
C92          C93   1.404       .  A
C93          C94   1.402       .  A
C93         H106   1.085       .  S
C94          C96   1.444       .  S
C95          N99   1.157       .  T
C96         N100   1.157       .  T
C97         N102   1.157       .  T
C98         N649   1.157       .  T
N101        C646   1.157       .  T
C107        C108   1.413       .  A
C107        C112   1.400       .  A
C107        C121   1.445       .  S
C108        C109   1.409       .  A
C108        C113   1.499       .  S
C109        C110   1.403       .  A
C109        H128   1.084       .  S
C110        C111   1.413       .  A
C110       C1218   1.443       .  S
C111        C112   1.409       .  A
C112        H127   1.084       .  S
C113        C114   1.409       .  A
C113        C118   1.416       .  A
C114        C115   1.400       .  A
C114        H129   1.084       .  S
C115        C116   1.406       .  A
C115        C119   1.442   1_545  S
C116        C117   1.402       .  A
C117        C118   1.402       .  A
C117        H130   1.084       .  S
C118        C120   1.444       .  S
C119        N671   1.157       .  T
C120        N124   1.157       .  T
C121        N126   1.157       .  T
C122       C1206   1.443       .  S
C122        N125   1.157   1_655  T
N123        C667   1.157       .  T
C131        C132   1.424       .  A
C131        C136   1.406       .  A
C131        C145   1.444       .  S
C132        C133   1.406       .  A
C132        C137   1.515       .  S
C133        C134   1.401       .  A
C133        H152   1.084       .  S
C134        C135   1.418       .  A
C134        C146   1.443       .  S
C135        C136   1.404       .  A
C136        H151   1.083   1_545  S
C137        C138   1.404       .  A
C137        C142   1.419       .  A
C138        C139   1.406       .  A
C138        H153   1.081       .  S
C139        C140   1.429       .  A
C139        C143   1.441   1_455  S
C140        C141   1.413       .  A
C141        C142   1.401       .  A
C141        H154   1.071       .  S
C142        C144   1.447       .  S
C143       N1243   1.158       .  T
C144        N148   1.158       .  T
C145        N150   1.158   1_545  T
C146        N149   1.157       .  T
N147       C1239   1.158       .  T
C155        C156   1.419       .  A
C155        C160   1.395       .  A
C155        C169   1.446       .  S
C156        C157   1.405       .  A
C156        C161   1.495       .  S
C157        C158   1.403       .  A
C157        H176   1.083       .  S
C158        C159   1.412       .  A
C158        C170   1.441   1_455  S
C159        C160   1.397       .  A
C160        H175   1.083       .  S
C161        C162   1.402       .  A
C161        C166   1.416       .  A
C162        C163   1.394       .  A
C162        H177   1.085       .  S
C163        C164   1.414       .  A
C163        C167   1.445       .  S
C164        C165   1.404       .  A
C165        C166   1.407       .  A
C165        H178   1.085       .  S
C166        C168   1.443       .  S
C167        N171   1.157       .  T
C168        N172   1.157       .  T
C169        N174   1.157       .  T
C170        N173   1.157       .  T
C179        C180   1.408   1_554  A
C179        C184   1.398       .  A
C179        C193   1.444       .  S
C180        C181   1.401       .  A
C180        C185   1.481       .  S
C181        C182   1.404       .  A
C181        H474   1.085       .  S
C182        C183   1.416   1_556  A
C182        C194   1.444       .  S
C183        C184   1.403       .  A
C184        H199   1.080       .  S
C185        C186   1.404   1_556  A
C185        C190   1.409       .  A
C186        C461   1.400   1_554  A
C186        H475   1.085       .  S
C187        C460   1.400       .  A
C187        C462   1.407       .  A
C187        C191   1.442       .  S
C188        C189   1.400       .  A
C188        C461   1.407       .  A
C189        C190   1.401       .  A
C189        H202   1.084       .  S
C190        C192   1.442       .  S
C191        N743   1.157       .  T
C192        N196   1.157       .  T
C193        N198   1.157       .  T
C194        N471   1.157       .  T
N195        C739   1.157   1_545  T
N197        C468   1.157       .  T
H200        C455   1.085       .  S
H201        C460   1.085       .  S
C203        C204   1.412       .  A
C203        C208   1.403       .  A
C203        C217   1.442       .  S
C204        C205   1.401       .  A
C204        C209   1.482       .  S
C205        C206   1.397       .  A
C205        H224   1.085       .  S
C206        C207   1.410       .  A
C206        C218   1.444       .  S
C207        C208   1.402       .  A
C208        H223   1.085       .  S
C209        C210   1.403       .  A
C209        C214   1.409       .  A
C210        C211   1.400   1_554  A
C210        H225   1.085       .  S
C211        C212   1.411   1_556  A
C211        C489   1.444       .  S
C212        C213   1.404       .  A
C213        C214   1.402       .  A
C213        H226   1.083       .  S
C214        C216   1.444       .  S
C215        C485   1.444       .  S
C215        N219   1.157       .  T
C216        N220   1.157       .  T
C217        N222   1.157       .  T
C218        N221   1.157       .  T
C227        C228   1.419       .  A
C227        C232   1.404   1_554  A
C227        C241   1.442       .  S
C228        C229   1.407       .  A
C228        C233   1.501       .  S
C229        C230   1.401   1_554  A
C229        H248   1.084       .  S
C230        C505   1.409       .  A
C230        C516   1.445       .  S
C231        C504   1.409       .  A
C231        C506   1.398       .  A
C232        C505   1.398       .  A
C232        H247   1.085       .  S
C233        C234   1.409       .  A
C233        C238   1.417       .  A
C234        C235   1.405       .  A
C234        H249   1.084       .  S
C235        C236   1.407       .  A
C235        C239   1.441       .  S
C236        C237   1.401       .  A
C237        C238   1.400       .  A
C237        H250   1.084       .  S
C238        C240   1.444       .  S
C239        N243   1.157       .  T
C240        N244   1.157       .  T
C241        N246   1.157       .  T
C242        C504   1.445       .  S
C242        N245   1.157       .  T
C251        C256   1.398       .  A
C251        C526   1.413       .  A
C251        C265   1.444       .  S
C252        C253   1.405       .  A
C252        C525   1.413   1_554  A
C252        C531   1.489   1_554  S
C253        C254   1.405       .  A
C253        H272   1.084       .  S
C254        C255   1.410       .  A
C254        C266   1.442       .  S
C255        C530   1.399       .  A
C256        C529   1.399       .  A
C256        H271   1.084       .  S
C257        C258   1.407       .  A
C257        C262   1.412       .  A
C257        C526   1.489       .  S
C258        C259   1.408       .  A
C258        H547   1.084       .  S
C259        C260   1.407       .  A
C259        C263   1.441       .  S
C260        C261   1.400       .  A
C261        C262   1.395       .  A
C261        H274   1.084       .  S
C262        C264   1.444       .  S
C263        N267   1.157       .  T
C264        N268   1.157       .  T
C265        N270   1.157       .  T
C266        N269   1.157       .  T
H273        C532   1.084       .  S
N275        C279   1.357       .  A
N275        C276   1.355       .  A
N275        C534   1.438       .  S
C276        C277   1.378       .  A
C276        C505   1.477       .  S
C277        C278   1.373       .  A
C277        H280   1.082       .  S
C278        C279   1.385       .  A
C278        H281   1.083       .  S
C279        C337   1.474       .  S
N282        C286   1.357       .  A
N282        C283   1.352       .  A
N282        C510   1.440       .  S
C283        C284   1.377       .  A
C283        C481   1.477       .  S
C284        C285   1.377       .  A
C284        H287   1.082       .  S
C285        C286   1.389       .  A
C285        H288   1.083       .  S
C286        C348   1.477       .  S
N289        C567   1.352       .  A
N289        C290   1.354       .  A
N289        C462   1.435       .  S
C290        C291   1.383       .  A
C290        C486   1.482       .  S
C291        C566   1.377       .  A
C291        H294   1.082       .  S
C292        C565   1.377   1_545  A
C292        C293   1.382       .  A
C292        H295   1.082       .  S
C293        N563   1.352   1_545  A
C293        C332   1.469       .  S
N296        C300   1.355       .  A
N296        C297   1.359       .  A
N296        C529   1.440       .  S
C297        C298   1.383       .  A
C297        C457   1.488       .  S
C298        C299   1.374       .  A
C298        H301   1.082       .  S
C299        C300   1.383       .  A
C299        H302   1.082       .  S
C300        C354   1.471       .  S
N303        C307   1.357       .  A
N303        C852   1.365   1_545  A
N303        C409   1.458       .  S
C304        N851   1.365       .  A
C304        C305   1.385       .  A
C304        C438   1.485       .  S
C305        C854   1.374       .  A
C305        H308   1.082       .  S
C306        C853   1.374   1_545  A
C306        C307   1.380       .  A
C306        H857   1.082       .  S
C307        C335   1.469       .  S
H309        C854   1.083       .  S
N310        C314   1.371       .  A
N310       C1407   1.372       .  A
N310        C414   1.477   1_655  S
C311       N1406   1.372       .  A
C311        C312   1.382       .  A
C311        C385   1.498       .  S
C312        C313   1.364       .  A
C312        H315   1.082       .  S
C313       C1410   1.381       .  A
C313        H316   1.083       .  S
C314       C1409   1.381       .  A
C314        C350   1.483       .  S
N317        C321   1.358       .  A
N317        C866   1.361       .  A
N317        C390   1.442       .  S
C318        N865   1.361       .  A
C318        C319   1.384       .  A
C318        C361   1.491       .  S
C319        C320   1.377       .  A
C319        H322   1.083       .  S
C320        C869   1.383       .  A
C320        H323   1.083       .  S
C321        C868   1.383       .  A
C321        C341   1.479       .  S
N324        C328   1.360       .  A
N324       C1421   1.358       .  A
N324        C433   1.442   1_655  S
C325       N1420   1.358       .  A
C325        C326   1.381       .  A
C325        C366   1.484       .  S
C326        C327   1.377       .  A
C326        H329   1.082       .  S
C327       C1424   1.382       .  A
C327        H330   1.082       .  S
C328       C1423   1.382       .  A
C328        C345   1.478       .  S
In331       O333   2.238       .  S
In331       O334   2.264       .  S
In331       O342   2.247       .  S
In331       O336   2.248       .  S
In331       O338   2.266       .  S
In331       O339   2.268       .  S
In331       O340   2.232       .  S
In331       O343   2.233       .  S
C332        O338   1.262       .  A
C332        O340   1.256       .  A
O333        C341   1.261       .  A
O334        C341   1.261       .  A
C335        O342   1.258       .  A
C335        O336   1.257       .  A
C337        O339   1.260       .  A
C337        O343   1.258       .  A
In344       O346   2.223       .  S
In344      O1443   2.269   1_455  S
In344       O355   2.263       .  S
In344       O349   2.230       .  S
In344       O351   2.274       .  S
In344       O352   2.248   1_455  S
In344      O1449   2.249   1_455  S
In344       O356   2.258       .  S
C345        O351   1.258   1_655  A
C345       O1449   1.257       .  A
O346       C1450   1.256   1_455  A
O347      In1440   2.269       .  S
O347        C354   1.260       .  A
C348        O355   1.262       .  A
C348        O349   1.263       .  A
C350        O352   1.263       .  A
C350        O356   1.262   1_655  A
O353      In1440   2.249       .  S
O353       C1441   1.257       .  A
C354       O1442   1.256       .  A
C357        C358   1.411       .  A
C357        C362   1.397       .  A
C357        C371   1.445       .  S
C358        C359   1.405       .  A
C358        C363   1.490       .  S
C359        C360   1.408       .  A
C359        H378   1.084       .  S
C360        C361   1.414       .  A
C360        C372   1.442       .  S
C361        C362   1.404       .  A
C362        H377   1.085       .  S
C363        C364   1.404       .  A
C363        C368   1.411       .  A
C364        C365   1.405       .  A
C364        H379   1.085       .  S
C365        C366   1.410       .  A
C365        C369   1.443       .  S
C366        C367   1.404       .  A
C367        C368   1.402       .  A
C367        H380   1.085       .  S
C368        C370   1.444       .  S
C369        N373   1.157       .  T
C370        N374   1.157       .  T
C371        N376   1.157       .  T
C372        N923   1.157       .  T
N375        C920   1.157       .  T
C381        C382   1.413       .  A
C381        C386   1.400       .  A
C381        C395   1.445       .  S
C382        C383   1.409       .  A
C382        C387   1.499       .  S
C383        C384   1.403       .  A
C383        H402   1.084       .  S
C384        C385   1.413       .  A
C384       C1492   1.443       .  S
C385        C386   1.409       .  A
C386        H401   1.084       .  S
C387        C388   1.409       .  A
C387        C392   1.416       .  A
C388        C389   1.400       .  A
C388        H403   1.084       .  S
C389        C390   1.406       .  A
C389        C393   1.442   1_545  S
C390        C391   1.402       .  A
C391        C392   1.402       .  A
C391        H404   1.084       .  S
C392        C394   1.444       .  S
C393        N945   1.157       .  T
C394        N398   1.157       .  T
C395        N400   1.157       .  T
C396       C1480   1.443       .  S
C396        N399   1.157   1_655  T
N397        C941   1.157       .  T
C405        C406   1.424       .  A
C405        C410   1.406       .  A
C405        C419   1.444       .  S
C406        C407   1.406       .  A
C406        C411   1.515       .  S
C407        C408   1.401       .  A
C407        H426   1.084       .  S
C408        C409   1.418       .  A
C408        C420   1.443       .  S
C409        C410   1.404       .  A
C410        H425   1.083   1_545  S
C411        C412   1.404       .  A
C411        C416   1.419       .  A
C412        C413   1.406       .  A
C412        H427   1.081       .  S
C413        C414   1.429       .  A
C413        C417   1.441   1_455  S
C414        C415   1.413       .  A
C415        C416   1.401       .  A
C415        H428   1.071       .  S
C416        C418   1.447       .  S
C417       N1517   1.158       .  T
C418        N422   1.158       .  T
C419        N424   1.158   1_545  T
C420        N423   1.157       .  T
N421       C1513   1.158       .  T
C429        C430   1.419       .  A
C429        C434   1.395       .  A
C429        C443   1.446       .  S
C430        C431   1.405       .  A
C430        C435   1.495       .  S
C431        C432   1.403       .  A
C431        H450   1.083       .  S
C432        C433   1.412       .  A
C432        C444   1.441   1_455  S
C433        C434   1.397       .  A
C434        H449   1.083       .  S
C435        C436   1.402       .  A
C435        C440   1.416       .  A
C436        C437   1.394       .  A
C436        H451   1.085       .  S
C437        C438   1.414       .  A
C437        C441   1.445       .  S
C438        C439   1.404       .  A
C439        C440   1.407       .  A
C439        H452   1.085       .  S
C440        C442   1.443       .  S
C441        N445   1.157       .  T
C442        N446   1.157       .  T
C443        N448   1.157       .  T
C444        N447   1.157       .  T
C453        C454   1.408       .  A
C453        C458   1.398       .  A
C453        C467   1.444       .  S
C454        C455   1.401       .  A
C454        C459   1.481       .  S
C455        C456   1.404       .  A
C456        C457   1.416       .  A
C456        C468   1.443       .  S
C457        C458   1.403       .  A
C458        H473   1.080       .  S
C459        C460   1.404       .  A
C459        C464   1.409       .  A
C461        C465   1.442   1_556  S
C462        C463   1.400       .  A
C463        C464   1.401       .  A
C463        H476   1.084       .  S
C464        C466   1.442       .  S
C465       N1017   1.157       .  T
C466        N470   1.157       .  T
C467        N472   1.157       .  T
N469       C1013   1.157   1_545  T
C477        C478   1.412       .  A
C477        C482   1.403       .  A
C477        C491   1.442       .  S
C478        C479   1.401       .  A
C478        C483   1.482       .  S
C479        C480   1.397       .  A
C479        H498   1.085       .  S
C480        C481   1.410       .  A
C480        C492   1.444       .  S
C481        C482   1.402       .  A
C482        H497   1.085       .  S
C483        C484   1.403       .  A
C483        C488   1.409       .  A
C484        C485   1.400       .  A
C484        H499   1.085       .  S
C485        C486   1.411       .  A
C486        C487   1.404       .  A
C487        C488   1.402       .  A
C487        H500   1.083       .  S
C488        C490   1.444       .  S
C489        N493   1.157       .  T
C490        N494   1.157       .  T
C491        N496   1.157       .  T
C492        N495   1.157       .  T
C501        C502   1.419       .  A
C501        C506   1.404       .  A
C501        C515   1.442       .  S
C502        C503   1.407       .  A
C502        C507   1.501       .  S
C503        C504   1.401       .  A
C503        H522   1.084       .  S
C506        H521   1.085       .  S
C507        C508   1.409       .  A
C507        C512   1.417       .  A
C508        C509   1.405       .  A
C508        H523   1.084       .  S
C509        C510   1.407       .  A
C509        C513   1.441       .  S
C510        C511   1.401       .  A
C511        C512   1.400       .  A
C511        H524   1.084       .  S
C512        C514   1.444       .  S
C513        N517   1.157       .  T
C514        N518   1.157       .  T
C515        N520   1.157       .  T
C516        N519   1.157       .  T
C525        C530   1.398   1_556  A
C525        C539   1.444       .  S
C526        C527   1.405       .  A
C527        C528   1.405       .  A
C527        H546   1.084       .  S
C528        C529   1.410       .  A
C528        C540   1.442       .  S
C530        H545   1.084   1_554  S
C531        C532   1.407   1_556  A
C531        C536   1.412       .  A
C532        C533   1.408   1_554  A
C533        C534   1.407       .  A
C533        C537   1.441   1_556  S
C534        C535   1.400       .  A
C535        C536   1.395       .  A
C535        H548   1.085       .  S
C536        C538   1.444       .  S
C537        N541   1.157       .  T
C538        N542   1.157       .  T
C539        N544   1.157       .  T
C540        N543   1.157       .  T
N549        C553   1.357       .  A
N549        C550   1.355       .  A
N549        C808   1.438       .  S
C550        C551   1.378       .  A
C550        C779   1.477       .  S
C551        C552   1.373       .  A
C551        H554   1.082       .  S
C552        C553   1.385       .  A
C552        H555   1.083       .  S
C553        C611   1.474       .  S
N556        C560   1.357       .  A
N556        C557   1.352       .  A
N556        C784   1.440       .  S
C557        C558   1.377       .  A
C557        C755   1.477       .  S
C558        C559   1.377       .  A
C558        H561   1.082       .  S
C559        C560   1.389       .  A
C559        H562   1.083       .  S
C560        C622   1.477       .  S
N563        C564   1.354       .  A
N563        C736   1.435       .  S
C564        C565   1.383       .  A
C564        C760   1.482   1_556  S
C565        H568   1.082       .  S
C566        C567   1.382       .  A
C566        H569   1.082       .  S
C567        C606   1.469       .  S
N570        C574   1.355       .  A
N570        C571   1.359       .  A
N570        C803   1.440       .  S
C571        C572   1.383       .  A
C571        C731   1.488       .  S
C572        C573   1.374       .  A
C572        H575   1.082       .  S
C573        C574   1.383       .  A
C573        H576   1.082       .  S
C574        C628   1.471       .  S
N577        C581   1.357       .  A
N577        C683   1.458       .  S
C578        C579   1.385       .  A
C578        C712   1.485       .  S
C579        H582   1.082       .  S
C580        C581   1.380       .  A
C581        C609   1.469       .  S
N584        C588   1.371       .  A
N584       C1681   1.372       .  A
N584        C688   1.477   1_655  S
C585       N1680   1.372       .  A
C585        C586   1.382       .  A
C585        C659   1.498       .  S
C586        C587   1.364       .  A
C586        H589   1.082       .  S
C587       C1684   1.381       .  A
C587        H590   1.083       .  S
C588       C1683   1.381       .  A
C588        C624   1.483       .  S
N591        C595   1.358       .  A
N591        C664   1.442       .  S
C592        C593   1.384       .  A
C592        C635   1.491   1_545  S
C593        C594   1.377       .  A
C593        H596   1.083   1_545  S
C594        H597   1.083       .  S
C595        C615   1.479       .  S
N598        C602   1.360       .  A
N598       C1695   1.358       .  A
N598        C707   1.442   1_655  S
C599       N1694   1.358       .  A
C599        C600   1.381       .  A
C599        C640   1.484       .  S
C600        C601   1.377       .  A
C600        H603   1.082       .  S
C601       C1698   1.382       .  A
C601        H604   1.082       .  S
C602       C1697   1.382       .  A
C602        C619   1.478       .  S
In605       O607   2.238       .  S
In605       O608   2.264       .  S
In605       O616   2.247       .  S
In605       O610   2.248       .  S
In605       O612   2.266       .  S
In605       O613   2.268       .  S
In605       O614   2.232       .  S
In605       O617   2.233       .  S
C606        O612   1.262       .  A
C606        O614   1.256       .  A
O607        C615   1.261       .  A
O608        C615   1.261       .  A
C609        O616   1.258       .  A
C609        O610   1.257       .  A
C611        O613   1.260       .  A
C611        O617   1.258       .  A
In618       O620   2.224       .  S
In618      O1717   2.269   1_455  S
In618       O629   2.263       .  S
In618       O623   2.230       .  S
In618       O625   2.274       .  S
In618       O626   2.248   1_455  S
In618      O1723   2.249   1_455  S
In618       O630   2.258       .  S
C619        O625   1.258   1_655  A
C619       O1723   1.257       .  A
O620       C1724   1.256   1_455  A
O621      In1714   2.269       .  S
O621        C628   1.260       .  A
C622        O629   1.262       .  A
C622        O623   1.263       .  A
C624        O626   1.263       .  A
C624        O630   1.262   1_655  A
O627      In1714   2.249       .  S
O627       C1715   1.257       .  A
C628       O1716   1.256       .  A
C631        C632   1.411       .  A
C631        C636   1.397       .  A
C631        C645   1.445       .  S
C632        C633   1.405       .  A
C632        C637   1.490       .  S
C633        C634   1.409   1_565  A
C633        H652   1.084       .  S
C634        C635   1.414   1_545  A
C634        C646   1.442       .  S
C635        C636   1.404       .  A
C636        H651   1.085       .  S
C637        C638   1.404       .  A
C637        C642   1.411       .  A
C638        C639   1.405       .  A
C638        H653   1.085       .  S
C639        C640   1.410       .  A
C639        C643   1.443       .  S
C640        C641   1.404       .  A
C641        C642   1.402       .  A
C641        H654   1.085       .  S
C642        C644   1.444       .  S
C643        N647   1.157       .  T
C644        N648   1.157       .  T
C645        N650   1.157       .  T
C655        C656   1.413       .  A
C655        C660   1.400       .  A
C655        C669   1.445       .  S
C656        C657   1.409       .  A
C656        C661   1.499       .  S
C657        C658   1.403       .  A
C657        H676   1.084       .  S
C658        C659   1.413       .  A
C658       C1766   1.443       .  S
C659        C660   1.409       .  A
C660        H675   1.084       .  S
C661        C662   1.409       .  A
C661        C666   1.416       .  A
C662        C663   1.400       .  A
C662        H677   1.084       .  S
C663        C664   1.406       .  A
C663        C667   1.442       .  S
C664        C665   1.402       .  A
C665        C666   1.402       .  A
C665        H678   1.084       .  S
C666        C668   1.444       .  S
C668        N672   1.157       .  T
C669        N674   1.157       .  T
C670       C1754   1.443       .  S
C670        N673   1.157   1_655  T
C679        C680   1.424       .  A
C679        C684   1.406       .  A
C679        C693   1.444       .  S
C680        C681   1.406       .  A
C680        C685   1.515       .  S
C681        C682   1.401       .  A
C681        H700   1.084       .  S
C682        C683   1.418       .  A
C682        C694   1.443       .  S
C683        C684   1.404       .  A
C684        H699   1.083       .  S
C685        C686   1.404       .  A
C685        C690   1.419       .  A
C686        C687   1.406       .  A
C686        H701   1.081       .  S
C687        C688   1.429       .  A
C687        C691   1.441   1_455  S
C688        C689   1.413       .  A
C689        C690   1.401       .  A
C689        H702   1.072       .  S
C690        C692   1.447       .  S
C691       N1791   1.158       .  T
C692        N696   1.158       .  T
C693        N698   1.158       .  T
C694        N697   1.157       .  T
N695       C1787   1.158       .  T
C703        C704   1.419       .  A
C703        C708   1.395       .  A
C703        C717   1.446       .  S
C704        C705   1.405       .  A
C704        C709   1.495       .  S
C705        C706   1.403       .  A
C705        H724   1.083       .  S
C706        C707   1.412       .  A
C706        C718   1.441   1_455  S
C707        C708   1.397       .  A
C708        H723   1.083       .  S
C709        C710   1.402       .  A
C709        C714   1.416       .  A
C710        C711   1.394       .  A
C710        H725   1.085       .  S
C711        C712   1.414       .  A
C711        C715   1.445       .  S
C712        C713   1.404       .  A
C713        C714   1.407       .  A
C713        H726   1.085       .  S
C714        C716   1.443       .  S
C715        N719   1.157       .  T
C716        N720   1.157       .  T
C717        N722   1.157       .  T
C718        N721   1.157       .  T
C727        C728   1.408   1_554  A
C727        C732   1.398       .  A
C727        C741   1.444       .  S
C728        C729   1.401       .  A
C728        C733   1.481       .  S
C729        C730   1.404       .  A
C729       H1022   1.085       .  S
C730        C731   1.416   1_556  A
C730        C742   1.443       .  S
C731        C732   1.403       .  A
C732        H747   1.080       .  S
C733        C734   1.404   1_556  A
C733        C738   1.409       .  A
C734       C1009   1.400   1_554  A
C734       H1023   1.085       .  S
C735       C1008   1.400       .  A
C735       C1010   1.407       .  A
C735        C739   1.442       .  S
C736       C1009   1.407       .  A
C736        C737   1.400       .  A
C737        C738   1.401       .  A
C737        H750   1.084       .  S
C738        C740   1.442       .  S
C740        N744   1.157       .  T
C741        N746   1.157       .  T
C742       N1019   1.157       .  T
N745       C1016   1.157       .  T
H748       C1003   1.084       .  S
H749       C1008   1.085       .  S
C751        C752   1.412       .  A
C751        C756   1.403       .  A
C751        C765   1.442       .  S
C752        C753   1.401       .  A
C752        C757   1.482       .  S
C753        C754   1.397       .  A
C753        H772   1.085       .  S
C754        C755   1.410       .  A
C754        C766   1.444       .  S
C755        C756   1.402       .  A
C756        H771   1.085       .  S
C757        C758   1.403       .  A
C757        C762   1.409       .  A
C758        C759   1.400   1_554  A
C758        H773   1.085       .  S
C759        C760   1.411   1_556  A
C759       C1037   1.444       .  S
C760        C761   1.404       .  A
C761        C762   1.402       .  A
C761        H774   1.083       .  S
C762        C764   1.444       .  S
C763       C1033   1.444       .  S
C763        N767   1.157       .  T
C764        N768   1.157       .  T
C765        N770   1.157       .  T
C766        N769   1.157       .  T
C775        C776   1.419       .  A
C775        C780   1.404   1_554  A
C775        C789   1.442       .  S
C776        C777   1.407       .  A
C776        C781   1.501       .  S
C777        C778   1.401   1_554  A
C777        H796   1.084       .  S
C778       C1053   1.409       .  A
C778       C1064   1.445       .  S
C779       C1052   1.409       .  A
C779       C1054   1.398       .  A
C780       C1053   1.398       .  A
C780        H795   1.085       .  S
C781        C782   1.409       .  A
C781        C786   1.417       .  A
C782        C783   1.405       .  A
C782        H797   1.084       .  S
C783        C784   1.407       .  A
C783        C787   1.441       .  S
C784        C785   1.401       .  A
C785        C786   1.400       .  A
C785        H798   1.084       .  S
C786        C788   1.444       .  S
C787        N791   1.157       .  T
C788        N792   1.157       .  T
C789        N794   1.157       .  T
C790       C1052   1.445       .  S
C790        N793   1.157       .  T
C799       C1074   1.413       .  A
C799        C804   1.398       .  A
C799        C813   1.444       .  S
C800       C1073   1.413   1_554  A
C800        C801   1.405       .  A
C800       C1079   1.489   1_554  S
C801        C802   1.405       .  A
C801        H820   1.084       .  S
C802        C803   1.410       .  A
C802        C814   1.442       .  S
C803       C1078   1.399       .  A
C804       C1077   1.399       .  A
C804        H819   1.084       .  S
C805        C806   1.407       .  A
C805        C810   1.412       .  A
C805       C1074   1.489       .  S
C806        C807   1.408       .  A
C806       H1095   1.084       .  S
C807        C808   1.407       .  A
C807        C811   1.441       .  S
C808        C809   1.400       .  A
C809        C810   1.395       .  A
C809        H822   1.085       .  S
C810        C812   1.444       .  S
C811        N815   1.157       .  T
C812        N816   1.157       .  T
C813        N818   1.157       .  T
C814        N817   1.157       .  T
H821       C1080   1.084       .  S
N823        C827   1.357       .  A
N823        C824   1.355       .  A
N823       C1082   1.438       .  S
C824        C825   1.378       .  A
C824       C1053   1.477       .  S
C825        C826   1.373       .  A
C825        H828   1.082       .  S
C826        C827   1.385       .  A
C826        H829   1.083       .  S
C827        C885   1.474       .  S
N830        C834   1.357       .  A
N830        C831   1.352       .  A
N830       C1058   1.440       .  S
C831        C832   1.377       .  A
C831       C1029   1.477       .  S
C832        C833   1.377       .  A
C832        H835   1.082       .  S
C833        C834   1.389       .  A
C833        H836   1.083       .  S
C834        C896   1.477       .  S
N837        C838   1.354       .  A
N837       C1010   1.435       .  S
C838        C839   1.383       .  A
C838       C1034   1.482       .  S
C839        H842   1.082       .  S
C840        C841   1.382       .  A
C840        H843   1.082       .  S
C841        C880   1.469       .  S
N844        C848   1.355       .  A
N844        C845   1.359       .  A
N844       C1077   1.440       .  S
C845        C846   1.383       .  A
C845       C1005   1.488       .  S
C846        C847   1.374       .  A
C846        H849   1.082       .  S
C847        C848   1.383       .  A
C847        H850   1.082       .  S
C848        C902   1.471       .  S
N851        C855   1.357       .  A
N851        C957   1.458       .  S
C852        C853   1.385       .  A
C852        C986   1.485       .  S
C853        H856   1.082       .  S
C854        C855   1.380       .  A
C855        C883   1.469       .  S
N858        C862   1.371       .  A
N858       C1955   1.372       .  A
N858        C962   1.477   1_655  S
C859       N1954   1.372       .  A
C859        C860   1.382       .  A
C859        C933   1.498       .  S
C860        C861   1.364       .  A
C860        H863   1.082       .  S
C861       C1958   1.381       .  A
C861        H864   1.083       .  S
C862       C1957   1.381       .  A
C862        C898   1.483       .  S
N865        C869   1.358       .  A
N865        C938   1.442       .  S
C866        C867   1.384       .  A
C866        C909   1.491   1_545  S
C867        C868   1.377       .  A
C867        H870   1.083   1_545  S
C868        H871   1.083       .  S
C869        C889   1.479       .  S
N872        C876   1.360       .  A
N872       C1969   1.358       .  A
N872        C981   1.442   1_655  S
C873       N1968   1.358       .  A
C873        C874   1.381       .  A
C873        C914   1.484       .  S
C874        C875   1.377       .  A
C874        H877   1.082       .  S
C875       C1972   1.382       .  A
C875        H878   1.082       .  S
C876       C1971   1.382       .  A
C876        C893   1.478       .  S
In879       O881   2.238       .  S
In879       O882   2.264       .  S
In879       O890   2.247       .  S
In879       O884   2.248       .  S
In879       O886   2.266       .  S
In879       O887   2.268       .  S
In879       O888   2.232       .  S
In879       O891   2.233       .  S
C880        O886   1.262       .  A
C880        O888   1.256       .  A
O881        C889   1.261       .  A
O882        C889   1.261       .  A
C883        O890   1.258       .  A
C883        O884   1.257       .  A
C885        O887   1.260       .  A
C885        O891   1.258       .  A
In892       O894   2.224       .  S
In892      O1991   2.269   1_455  S
In892       O903   2.263       .  S
In892       O897   2.230       .  S
In892       O899   2.274       .  S
In892       O900   2.248   1_455  S
In892      O1997   2.249   1_455  S
In892       O904   2.258       .  S
C893        O899   1.258   1_655  A
C893       O1997   1.257       .  A
O894       C1998   1.256   1_455  A
O895      In1988   2.269       .  S
O895        C902   1.260       .  A
C896        O903   1.262       .  A
C896        O897   1.263       .  A
C898        O900   1.263       .  A
C898        O904   1.262   1_655  A
O901      In1988   2.249       .  S
O901       C1989   1.257       .  A
C902       O1990   1.256       .  A
C905        C906   1.411       .  A
C905        C910   1.397       .  A
C905        C919   1.445       .  S
C906        C907   1.405       .  A
C906        C911   1.490       .  S
C907        C908   1.408   1_565  A
C907        H926   1.084       .  S
C908        C909   1.414   1_545  A
C908        C920   1.442       .  S
C909        C910   1.404       .  A
C910        H925   1.085       .  S
C911        C912   1.404       .  A
C911        C916   1.411       .  A
C912        C913   1.405       .  A
C912        H927   1.085       .  S
C913        C914   1.410       .  A
C913        C917   1.443       .  S
C914        C915   1.404       .  A
C915        C916   1.402       .  A
C915        H928   1.084       .  S
C916        C918   1.444       .  S
C917        N921   1.157       .  T
C918        N922   1.157       .  T
C919        N924   1.157       .  T
C929        C930   1.413       .  A
C929        C934   1.400       .  A
C929        C943   1.445       .  S
C930        C931   1.409       .  A
C930        C935   1.499       .  S
C931        C932   1.403       .  A
C931        H950   1.084       .  S
C932        C933   1.413       .  A
C932       C2040   1.443       .  S
C933        C934   1.409       .  A
C934        H949   1.084       .  S
C935        C936   1.409       .  A
C935        C940   1.416       .  A
C936        C937   1.400       .  A
C936        H951   1.084       .  S
C937        C938   1.406       .  A
C937        C941   1.442       .  S
C938        C939   1.402       .  A
C939        C940   1.402       .  A
C939        H952   1.084       .  S
C940        C942   1.444       .  S
C942        N946   1.157       .  T
C943        N948   1.157       .  T
C944       C2028   1.443       .  S
C944        N947   1.157   1_655  T
C953        C954   1.424       .  A
C953        C958   1.406       .  A
C953        C967   1.444       .  S
C954        C955   1.406       .  A
C954        C959   1.515       .  S
C955        C956   1.401       .  A
C955        H974   1.084       .  S
C956        C957   1.418       .  A
C956        C968   1.443       .  S
C957        C958   1.404       .  A
C958        H973   1.083       .  S
C959        C960   1.404       .  A
C959        C964   1.419       .  A
C960        C961   1.406       .  A
C960        H975   1.081       .  S
C961        C962   1.429       .  A
C961        C965   1.441   1_455  S
C962        C963   1.413       .  A
C963        C964   1.401       .  A
C963        H976   1.072       .  S
C964        C966   1.447       .  S
C965       N2065   1.158       .  T
C966        N970   1.158       .  T
C967        N972   1.158       .  T
C968        N971   1.157       .  T
N969       C2061   1.158       .  T
C977        C978   1.419       .  A
C977        C982   1.395       .  A
C977        C991   1.446       .  S
C978        C979   1.405       .  A
C978        C983   1.495       .  S
C979        C980   1.403       .  A
C979        H998   1.083       .  S
C980        C981   1.412       .  A
C980        C992   1.441   1_455  S
C981        C982   1.397       .  A
C982        H997   1.083       .  S
C983        C984   1.402       .  A
C983        C988   1.416       .  A
C984        C985   1.394       .  A
C984        H999   1.086       .  S
C985        C986   1.414       .  A
C985        C989   1.445       .  S
C986        C987   1.404       .  A
C987        C988   1.407       .  A
C987       H1000   1.085       .  S
C988        C990   1.443       .  S
C989        N993   1.157       .  T
C990        N994   1.157       .  T
C991        N996   1.157       .  T
C992        N995   1.157       .  T
C1001      C1002   1.408       .  A
C1001      C1006   1.398       .  A
C1001      C1015   1.444       .  S
C1002      C1003   1.401       .  A
C1002      C1007   1.481       .  S
C1003      C1004   1.404       .  A
C1004      C1005   1.416       .  A
C1004      C1016   1.443       .  S
C1005      C1006   1.403       .  A
C1006      H1021   1.080       .  S
C1007      C1008   1.404       .  A
C1007      C1012   1.409       .  A
C1009      C1013   1.442   1_556  S
C1010      C1011   1.400       .  A
C1011      C1012   1.401       .  A
C1011      H1024   1.084       .  S
C1012      C1014   1.442       .  S
C1014      N1018   1.157       .  T
C1015      N1020   1.157       .  T
C1025      C1026   1.411       .  A
C1025      C1030   1.403       .  A
C1025      C1039   1.442       .  S
C1026      C1027   1.401       .  A
C1026      C1031   1.482       .  S
C1027      C1028   1.397       .  A
C1027      H1046   1.085       .  S
C1028      C1029   1.410       .  A
C1028      C1040   1.444       .  S
C1029      C1030   1.402       .  A
C1030      H1045   1.085       .  S
C1031      C1032   1.403       .  A
C1031      C1036   1.409       .  A
C1032      C1033   1.400       .  A
C1032      H1047   1.085       .  S
C1033      C1034   1.411       .  A
C1034      C1035   1.404       .  A
C1035      C1036   1.402       .  A
C1035      H1048   1.083       .  S
C1036      C1038   1.444       .  S
C1037      N1041   1.157       .  T
C1038      N1042   1.157       .  T
C1039      N1044   1.157       .  T
C1040      N1043   1.157       .  T
C1049      C1050   1.419       .  A
C1049      C1054   1.404       .  A
C1049      C1063   1.442       .  S
C1050      C1051   1.407       .  A
C1050      C1055   1.501       .  S
C1051      C1052   1.401       .  A
C1051      H1070   1.084       .  S
C1054      H1069   1.085       .  S
C1055      C1056   1.409       .  A
C1055      C1060   1.417       .  A
C1056      C1057   1.405       .  A
C1056      H1071   1.084       .  S
C1057      C1058   1.407       .  A
C1057      C1061   1.441       .  S
C1058      C1059   1.401       .  A
C1059      C1060   1.400       .  A
C1059      H1072   1.084       .  S
C1060      C1062   1.444       .  S
C1061      N1065   1.157       .  T
C1062      N1066   1.157       .  T
C1063      N1068   1.157       .  T
C1064      N1067   1.157       .  T
C1073      C1078   1.398   1_556  A
C1073      C1087   1.444       .  S
C1074      C1075   1.405       .  A
C1075      C1076   1.405       .  A
C1075      H1094   1.084       .  S
C1076      C1077   1.410       .  A
C1076      C1088   1.442       .  S
C1078      H1093   1.084   1_554  S
C1079      C1080   1.407   1_556  A
C1079      C1084   1.412       .  A
C1080      C1081   1.408   1_554  A
C1081      C1082   1.407       .  A
C1081      C1085   1.441   1_556  S
C1082      C1083   1.400       .  A
C1083      C1084   1.395       .  A
C1083      H1096   1.084       .  S
C1084      C1086   1.444       .  S
C1085      N1089   1.157       .  T
C1086      N1090   1.157       .  T
C1087      N1092   1.157       .  T
C1088      N1091   1.157       .  T
N1097      C1101   1.357       .  A
N1097      C1098   1.355       .  A
N1097      C1356   1.438       .  S
C1098      C1099   1.378       .  A
C1098      C1327   1.477       .  S
C1099      C1100   1.373       .  A
C1099      H1102   1.082       .  S
C1100      C1101   1.385       .  A
C1100      H1103   1.083       .  S
C1101      C1159   1.474       .  S
N1104      C1108   1.357       .  A
N1104      C1105   1.352       .  A
N1104      C1332   1.440       .  S
C1105      C1106   1.377       .  A
C1105      C1303   1.477       .  S
C1106      C1107   1.377       .  A
C1106      H1109   1.082       .  S
C1107      C1108   1.389       .  A
C1107      H1110   1.083       .  S
C1108      C1170   1.477       .  S
N1111      C1937   1.352       .  A
N1111      C1112   1.354       .  A
N1111      C1284   1.435       .  S
C1112      C1113   1.383       .  A
C1112      C1308   1.482   1_556  S
C1113      C1936   1.377       .  A
C1113      H1116   1.082       .  S
C1114      C1935   1.377   1_545  A
C1114      C1115   1.382       .  A
C1114      H1117   1.082       .  S
C1115      N1933   1.352   1_545  A
C1115      C1154   1.469       .  S
N1118      C1122   1.355       .  A
N1118      C1119   1.359       .  A
N1118      C1351   1.440       .  S
C1119      C1120   1.383       .  A
C1119      C1279   1.488       .  S
C1120      C1121   1.374   1_655  A
C1120      H1123   1.082       .  S
C1121      C1122   1.383   1_455  A
C1121      H1124   1.082       .  S
C1122      C1176   1.471       .  S
N1125      C1129   1.357       .  A
N1125      C1674   1.365   1_545  A
N1125      C1231   1.458       .  S
C1126      N1673   1.365       .  A
C1126      C1127   1.385       .  A
C1126      C1260   1.485       .  S
C1127      C1676   1.374       .  A
C1127      H1130   1.082       .  S
C1128      C1675   1.374   1_545  A
C1128      C1129   1.380       .  A
C1128      H1679   1.083       .  S
C1129      C1157   1.469       .  S
H1131      C1676   1.082       .  S
N1132      C1136   1.371       .  A
N1132      C1236   1.477       .  S
C1133      C1134   1.382       .  A
C1133      C1207   1.498       .  S
C1134      C1135   1.364       .  A
C1134      H1137   1.082       .  S
C1135      H1138   1.083       .  S
C1136      C1172   1.483       .  S
N1139      C1143   1.358       .  A
N1139      C1688   1.361       .  A
N1139      C1212   1.442       .  S
C1140      N1687   1.361       .  A
C1140      C1141   1.384       .  A
C1140      C1183   1.491       .  S
C1141      C1142   1.377       .  A
C1141      H1144   1.083       .  S
C1142      C1691   1.383       .  A
C1142      H1145   1.083       .  S
C1143      C1690   1.383       .  A
C1143      C1163   1.479       .  S
N1146      C1150   1.360       .  A
N1146      C1255   1.442       .  S
C1147      C1148   1.381       .  A
C1147      C1188   1.484       .  S
C1148      C1149   1.377       .  A
C1148      H1151   1.082       .  S
C1149      H1152   1.082       .  S
C1150      C1167   1.478       .  S
In1153     O1155   2.238       .  S
In1153     O1156   2.264       .  S
In1153     O1164   2.247       .  S
In1153     O1158   2.248       .  S
In1153     O1160   2.266       .  S
In1153     O1161   2.268       .  S
In1153     O1162   2.232       .  S
In1153     O1165   2.233       .  S
C1154      O1160   1.262       .  A
C1154      O1162   1.256       .  A
O1155      C1163   1.261       .  A
O1156      C1163   1.261       .  A
C1157      O1164   1.258       .  A
C1157      O1158   1.257       .  A
C1159      O1161   1.260       .  A
C1159      O1165   1.258       .  A
In1166     O1168   2.223       .  S
In1166     O1177   2.263       .  S
In1166     O1171   2.230       .  S
In1166     O1173   2.274       .  S
In1166     O1174   2.248       .  S
In1166     O1178   2.258       .  S
C1167      O1173   1.258       .  A
O1169      C1176   1.260       .  A
C1170      O1177   1.262       .  A
C1170      O1171   1.263       .  A
C1172      O1174   1.263       .  A
C1172      O1178   1.262       .  A
C1179      C1180   1.411       .  A
C1179      C1184   1.397       .  A
C1179      C1193   1.445       .  S
C1180      C1181   1.405       .  A
C1180      C1185   1.490       .  S
C1181      C1182   1.408       .  A
C1181      H1200   1.084       .  S
C1182      C1183   1.414       .  A
C1182      C1194   1.442       .  S
C1183      C1184   1.404       .  A
C1184      H1199   1.085       .  S
C1185      C1186   1.404       .  A
C1185      C1190   1.411       .  A
C1186      C1187   1.405       .  A
C1186      H1201   1.085       .  S
C1187      C1188   1.410       .  A
C1187      C1191   1.443       .  S
C1188      C1189   1.404       .  A
C1189      C1190   1.403       .  A
C1189      H1202   1.084   1_655  S
C1190      C1192   1.444   1_655  S
C1191      N1195   1.157       .  T
C1192      N1196   1.157       .  T
C1193      N1198   1.157       .  T
C1194      N1745   1.157       .  T
N1197      C1742   1.157       .  T
C1203      C1204   1.413       .  A
C1203      C1208   1.400       .  A
C1203      C1217   1.445       .  S
C1204      C1205   1.409       .  A
C1204      C1209   1.499       .  S
C1205      C1206   1.403       .  A
C1205      H1224   1.084       .  S
C1206      C1207   1.413       .  A
C1207      C1208   1.409       .  A
C1208      H1223   1.084       .  S
C1209      C1210   1.409       .  A
C1209      C1214   1.416       .  A
C1210      C1211   1.400       .  A
C1210      H1225   1.084       .  S
C1211      C1212   1.406       .  A
C1211      C1215   1.442   1_545  S
C1212      C1213   1.402       .  A
C1213      C1214   1.402       .  A
C1213      H1226   1.084       .  S
C1214      C1216   1.444       .  S
C1215      N1767   1.157       .  T
C1216      N1220   1.157       .  T
C1217      N1222   1.157       .  T
C1218      N1221   1.157       .  T
N1219      C1763   1.157       .  T
C1227      C1228   1.424       .  A
C1227      C1232   1.406       .  A
C1227      C1241   1.444       .  S
C1228      C1229   1.406       .  A
C1228      C1233   1.515       .  S
C1229      C1230   1.401       .  A
C1229      H1248   1.084       .  S
C1230      C1231   1.418       .  A
C1230      C1242   1.443       .  S
C1231      C1232   1.404       .  A
C1232      H1247   1.083   1_545  S
C1233      C1234   1.404       .  A
C1233      C1238   1.419       .  A
C1234      C1235   1.406       .  A
C1234      H1249   1.081       .  S
C1235      C1236   1.429       .  A
C1235      C1239   1.441       .  S
C1236      C1237   1.413       .  A
C1237      C1238   1.401       .  A
C1237      H1250   1.071       .  S
C1238      C1240   1.447       .  S
C1240      N1244   1.158       .  T
C1241      N1246   1.158   1_545  T
C1242      N1245   1.157       .  T
C1251      C1252   1.419       .  A
C1251      C1256   1.395       .  A
C1251      C1265   1.446       .  S
C1252      C1253   1.405       .  A
C1252      C1257   1.495       .  S
C1253      C1254   1.403       .  A
C1253      H1272   1.083       .  S
C1254      C1255   1.412       .  A
C1254      C1266   1.441       .  S
C1255      C1256   1.397       .  A
C1256      H1271   1.083       .  S
C1257      C1258   1.402       .  A
C1257      C1262   1.416       .  A
C1258      C1259   1.394       .  A
C1258      H1273   1.085       .  S
C1259      C1260   1.414       .  A
C1259      C1263   1.445       .  S
C1260      C1261   1.404       .  A
C1261      C1262   1.407       .  A
C1261      H1274   1.085       .  S
C1262      C1264   1.443       .  S
C1263      N1267   1.157       .  T
C1264      N1268   1.157       .  T
C1265      N1270   1.157       .  T
C1266      N1269   1.157       .  T
C1275      C1276   1.408   1_554  A
C1275      C1280   1.398       .  A
C1275      C1289   1.444       .  S
C1276      C1277   1.401       .  A
C1276      C1281   1.481       .  S
C1277      C1278   1.404       .  A
C1277      H1570   1.085       .  S
C1278      C1279   1.416   1_556  A
C1278      C1290   1.443       .  S
C1279      C1280   1.403       .  A
C1280      H1295   1.080       .  S
C1281      C1282   1.404   1_556  A
C1281      C1286   1.409       .  A
C1282      C1557   1.400   1_554  A
C1282      H1571   1.085       .  S
C1283      C1556   1.400       .  A
C1283      C1558   1.407       .  A
C1283      C1287   1.442       .  S
C1284      C1557   1.407       .  A
C1284      C1285   1.400       .  A
C1285      C1286   1.401       .  A
C1285      H1298   1.084       .  S
C1286      C1288   1.442       .  S
C1287      N1839   1.157       .  T
C1288      N1292   1.157       .  T
C1289      N1294   1.157       .  T
C1290      N1567   1.157       .  T
N1291      C1835   1.157   1_545  T
N1293      C1564   1.157       .  T
H1296      C1551   1.085       .  S
H1297      C1556   1.085       .  S
C1299      C1300   1.412       .  A
C1299      C1304   1.403       .  A
C1299      C1313   1.442       .  S
C1300      C1301   1.401       .  A
C1300      C1305   1.482       .  S
C1301      C1302   1.397       .  A
C1301      H1320   1.085       .  S
C1302      C1303   1.410       .  A
C1302      C1314   1.444       .  S
C1303      C1304   1.402       .  A
C1304      H1319   1.085       .  S
C1305      C1306   1.403       .  A
C1305      C1310   1.409       .  A
C1306      C1307   1.400   1_554  A
C1306      H1321   1.085       .  S
C1307      C1308   1.411   1_556  A
C1307      C1585   1.444       .  S
C1308      C1309   1.404       .  A
C1309      C1310   1.402       .  A
C1309      H1322   1.083       .  S
C1310      C1312   1.444       .  S
C1311      C1581   1.444       .  S
C1311      N1315   1.157       .  T
C1312      N1316   1.157       .  T
C1313      N1318   1.157       .  T
C1314      N1317   1.157       .  T
C1323      C1324   1.419       .  A
C1323      C1328   1.404   1_554  A
C1323      C1337   1.442       .  S
C1324      C1325   1.407       .  A
C1324      C1329   1.501       .  S
C1325      C1326   1.401   1_554  A
C1325      H1344   1.084       .  S
C1326      C1601   1.409       .  A
C1326      C1612   1.445       .  S
C1327      C1600   1.409       .  A
C1327      C1602   1.398       .  A
C1328      C1601   1.398       .  A
C1328      H1343   1.085       .  S
C1329      C1330   1.409       .  A
C1329      C1334   1.417       .  A
C1330      C1331   1.405       .  A
C1330      H1345   1.084       .  S
C1331      C1332   1.407       .  A
C1331      C1335   1.441       .  S
C1332      C1333   1.401       .  A
C1333      C1334   1.400       .  A
C1333      H1346   1.084       .  S
C1334      C1336   1.444       .  S
C1335      N1339   1.157       .  T
C1336      N1340   1.157       .  T
C1337      N1342   1.157       .  T
C1338      C1600   1.445       .  S
C1338      N1341   1.157       .  T
C1347      C1622   1.413       .  A
C1347      C1352   1.398       .  A
C1347      C1361   1.444       .  S
C1348      C1621   1.413   1_554  A
C1348      C1349   1.405       .  A
C1348      C1627   1.489   1_554  S
C1349      C1350   1.405       .  A
C1349      H1368   1.084       .  S
C1350      C1351   1.410       .  A
C1350      C1362   1.442       .  S
C1351      C1626   1.399       .  A
C1352      C1625   1.399       .  A
C1352      H1367   1.084       .  S
C1353      C1354   1.407       .  A
C1353      C1358   1.412       .  A
C1353      C1622   1.489       .  S
C1354      C1355   1.408       .  A
C1354      H1643   1.084       .  S
C1355      C1356   1.407       .  A
C1355      C1359   1.441       .  S
C1356      C1357   1.400       .  A
C1357      C1358   1.395       .  A
C1357      H1370   1.084       .  S
C1358      C1360   1.444       .  S
C1359      N1363   1.157       .  T
C1360      N1364   1.157       .  T
C1361      N1366   1.157       .  T
C1362      N1365   1.157       .  T
H1369      C1628   1.084       .  S
N1371      C1375   1.357       .  A
N1371      C1372   1.355       .  A
N1371      C1630   1.438       .  S
C1372      C1373   1.378       .  A
C1372      C1601   1.477       .  S
C1373      C1374   1.373       .  A
C1373      H1376   1.082       .  S
C1374      C1375   1.385       .  A
C1374      H1377   1.083       .  S
C1375      C1433   1.474       .  S
N1378      C1382   1.357       .  A
N1378      C1379   1.352       .  A
N1378      C1606   1.440       .  S
C1379      C1380   1.377       .  A
C1379      C1577   1.477       .  S
C1380      C1381   1.377       .  A
C1380      H1383   1.082       .  S
C1381      C1382   1.389       .  A
C1381      H1384   1.083       .  S
C1382      C1444   1.477       .  S
N1385      C1663   1.352       .  A
N1385      C1386   1.354       .  A
N1385      C1558   1.435       .  S
C1386      C1387   1.383       .  A
C1386      C1582   1.482       .  S
C1387      C1662   1.377       .  A
C1387      H1390   1.082       .  S
C1388      C1661   1.377   1_545  A
C1388      C1389   1.382       .  A
C1388      H1391   1.082       .  S
C1389      N1659   1.352   1_545  A
C1389      C1428   1.469       .  S
N1392      C1396   1.355       .  A
N1392      C1393   1.359       .  A
N1392      C1625   1.440       .  S
C1393      C1394   1.383       .  A
C1393      C1553   1.488       .  S
C1394      C1395   1.374   1_655  A
C1394      H1397   1.082       .  S
C1395      C1396   1.383   1_455  A
C1395      H1398   1.082       .  S
C1396      C1450   1.471       .  S
N1399      C1403   1.357       .  A
N1399      C1948   1.365   1_545  A
N1399      C1505   1.458       .  S
C1400      N1947   1.365       .  A
C1400      C1401   1.385       .  A
C1400      C1534   1.485       .  S
C1401      C1950   1.374       .  A
C1401      H1404   1.082       .  S
C1402      C1949   1.374   1_545  A
C1402      C1403   1.380       .  A
C1402      H1953   1.083       .  S
C1403      C1431   1.469       .  S
H1405      C1950   1.082       .  S
N1406      C1410   1.371       .  A
N1406      C1510   1.477       .  S
C1407      C1408   1.382       .  A
C1407      C1481   1.498       .  S
C1408      C1409   1.364       .  A
C1408      H1411   1.082       .  S
C1409      H1412   1.083       .  S
C1410      C1446   1.483       .  S
N1413      C1417   1.358       .  A
N1413      C1962   1.361       .  A
N1413      C1486   1.442       .  S
C1414      N1961   1.361       .  A
C1414      C1415   1.384       .  A
C1414      C1457   1.491       .  S
C1415      C1416   1.377       .  A
C1415      H1418   1.082       .  S
C1416      C1965   1.383       .  A
C1416      H1419   1.083       .  S
C1417      C1964   1.383       .  A
C1417      C1437   1.479       .  S
N1420      C1424   1.360       .  A
N1420      C1529   1.442       .  S
C1421      C1422   1.381       .  A
C1421      C1462   1.484       .  S
C1422      C1423   1.377       .  A
C1422      H1425   1.082       .  S
C1423      H1426   1.082       .  S
C1424      C1441   1.478       .  S
In1427     O1429   2.238       .  S
In1427     O1430   2.264       .  S
In1427     O1438   2.247       .  S
In1427     O1432   2.248       .  S
In1427     O1434   2.266       .  S
In1427     O1435   2.268       .  S
In1427     O1436   2.232       .  S
In1427     O1439   2.233       .  S
C1428      O1434   1.262       .  A
C1428      O1436   1.256       .  A
O1429      C1437   1.261       .  A
O1430      C1437   1.261       .  A
C1431      O1438   1.258       .  A
C1431      O1432   1.257       .  A
C1433      O1435   1.260       .  A
C1433      O1439   1.258       .  A
In1440     O1442   2.223       .  S
In1440     O1451   2.263       .  S
In1440     O1445   2.230       .  S
In1440     O1447   2.274       .  S
In1440     O1448   2.248       .  S
In1440     O1452   2.258       .  S
C1441      O1447   1.258       .  A
O1443      C1450   1.260       .  A
C1444      O1451   1.262       .  A
C1444      O1445   1.263       .  A
C1446      O1448   1.263       .  A
C1446      O1452   1.262       .  A
C1453      C1454   1.411       .  A
C1453      C1458   1.397       .  A
C1453      C1467   1.445       .  S
C1454      C1455   1.405       .  A
C1454      C1459   1.490       .  S
C1455      C1456   1.408       .  A
C1455      H1474   1.084       .  S
C1456      C1457   1.414       .  A
C1456      C1468   1.442       .  S
C1457      C1458   1.404       .  A
C1458      H1473   1.085       .  S
C1459      C1460   1.404       .  A
C1459      C1464   1.411       .  A
C1460      C1461   1.405       .  A
C1460      H1475   1.085       .  S
C1461      C1462   1.410       .  A
C1461      C1465   1.443       .  S
C1462      C1463   1.404       .  A
C1463      C1464   1.403       .  A
C1463      H1476   1.084   1_655  S
C1464      C1466   1.444   1_655  S
C1465      N1469   1.157       .  T
C1466      N1470   1.157       .  T
C1467      N1472   1.157       .  T
C1468      N2019   1.157       .  T
N1471      C2016   1.157       .  T
C1477      C1478   1.413       .  A
C1477      C1482   1.400       .  A
C1477      C1491   1.445       .  S
C1478      C1479   1.409       .  A
C1478      C1483   1.499       .  S
C1479      C1480   1.403       .  A
C1479      H1498   1.084       .  S
C1480      C1481   1.413       .  A
C1481      C1482   1.409       .  A
C1482      H1497   1.084       .  S
C1483      C1484   1.409       .  A
C1483      C1488   1.416       .  A
C1484      C1485   1.400       .  A
C1484      H1499   1.084       .  S
C1485      C1486   1.406       .  A
C1485      C1489   1.442   1_545  S
C1486      C1487   1.402       .  A
C1487      C1488   1.402       .  A
C1487      H1500   1.084       .  S
C1488      C1490   1.444       .  S
C1489      N2041   1.157       .  T
C1490      N1494   1.157       .  T
C1491      N1496   1.157       .  T
C1492      N1495   1.157       .  T
N1493      C2037   1.157       .  T
C1501      C1502   1.424       .  A
C1501      C1506   1.406       .  A
C1501      C1515   1.444       .  S
C1502      C1503   1.406       .  A
C1502      C1507   1.515       .  S
C1503      C1504   1.401       .  A
C1503      H1522   1.084       .  S
C1504      C1505   1.418       .  A
C1504      C1516   1.443       .  S
C1505      C1506   1.404       .  A
C1506      H1521   1.083   1_545  S
C1507      C1508   1.404       .  A
C1507      C1512   1.419       .  A
C1508      C1509   1.406       .  A
C1508      H1523   1.081       .  S
C1509      C1510   1.429       .  A
C1509      C1513   1.441       .  S
C1510      C1511   1.413       .  A
C1511      C1512   1.401       .  A
C1511      H1524   1.071       .  S
C1512      C1514   1.447       .  S
C1514      N1518   1.158       .  T
C1515      N1520   1.158   1_545  T
C1516      N1519   1.157       .  T
C1525      C1526   1.419       .  A
C1525      C1530   1.395       .  A
C1525      C1539   1.446       .  S
C1526      C1527   1.405       .  A
C1526      C1531   1.495       .  S
C1527      C1528   1.403       .  A
C1527      H1546   1.083       .  S
C1528      C1529   1.412       .  A
C1528      C1540   1.441       .  S
C1529      C1530   1.397       .  A
C1530      H1545   1.083       .  S
C1531      C1532   1.402       .  A
C1531      C1536   1.416       .  A
C1532      C1533   1.394       .  A
C1532      H1547   1.085       .  S
C1533      C1534   1.414       .  A
C1533      C1537   1.445       .  S
C1534      C1535   1.404       .  A
C1535      C1536   1.407       .  A
C1535      H1548   1.085       .  S
C1536      C1538   1.443       .  S
C1537      N1541   1.157       .  T
C1538      N1542   1.157       .  T
C1539      N1544   1.157       .  T
C1540      N1543   1.157       .  T
C1549      C1550   1.408       .  A
C1549      C1554   1.398       .  A
C1549      C1563   1.444       .  S
C1550      C1551   1.401       .  A
C1550      C1555   1.481       .  S
C1551      C1552   1.404       .  A
C1552      C1553   1.416       .  A
C1552      C1564   1.443       .  S
C1553      C1554   1.403       .  A
C1554      H1569   1.080       .  S
C1555      C1556   1.404       .  A
C1555      C1560   1.409       .  A
C1557      C1561   1.442   1_556  S
C1558      C1559   1.400       .  A
C1559      C1560   1.401       .  A
C1559      H1572   1.084       .  S
C1560      C1562   1.442       .  S
C1561      N2113   1.157       .  T
C1562      N1566   1.157       .  T
C1563      N1568   1.157       .  T
N1565      C2109   1.157   1_545  T
C1573      C1574   1.412       .  A
C1573      C1578   1.403       .  A
C1573      C1587   1.442       .  S
C1574      C1575   1.401       .  A
C1574      C1579   1.482       .  S
C1575      C1576   1.397       .  A
C1575      H1594   1.085       .  S
C1576      C1577   1.410       .  A
C1576      C1588   1.444       .  S
C1577      C1578   1.402       .  A
C1578      H1593   1.085       .  S
C1579      C1580   1.403       .  A
C1579      C1584   1.409       .  A
C1580      C1581   1.400       .  A
C1580      H1595   1.085       .  S
C1581      C1582   1.411       .  A
C1582      C1583   1.404       .  A
C1583      C1584   1.402       .  A
C1583      H1596   1.083       .  S
C1584      C1586   1.444       .  S
C1585      N1589   1.157       .  T
C1586      N1590   1.157       .  T
C1587      N1592   1.157       .  T
C1588      N1591   1.157       .  T
C1597      C1598   1.419       .  A
C1597      C1602   1.404       .  A
C1597      C1611   1.442       .  S
C1598      C1599   1.407       .  A
C1598      C1603   1.501       .  S
C1599      C1600   1.401       .  A
C1599      H1618   1.084       .  S
C1602      H1617   1.085       .  S
C1603      C1604   1.409       .  A
C1603      C1608   1.417       .  A
C1604      C1605   1.405       .  A
C1604      H1619   1.084       .  S
C1605      C1606   1.407       .  A
C1605      C1609   1.441       .  S
C1606      C1607   1.401       .  A
C1607      C1608   1.400       .  A
C1607      H1620   1.084       .  S
C1608      C1610   1.444       .  S
C1609      N1613   1.157       .  T
C1610      N1614   1.157       .  T
C1611      N1616   1.157       .  T
C1612      N1615   1.157       .  T
C1621      C1626   1.398   1_556  A
C1621      C1635   1.444       .  S
C1622      C1623   1.405       .  A
C1623      C1624   1.405       .  A
C1623      H1642   1.084       .  S
C1624      C1625   1.410       .  A
C1624      C1636   1.442       .  S
C1626      H1641   1.084   1_554  S
C1627      C1628   1.407   1_556  A
C1627      C1632   1.412       .  A
C1628      C1629   1.408   1_554  A
C1629      C1630   1.407       .  A
C1629      C1633   1.441   1_556  S
C1630      C1631   1.400       .  A
C1631      C1632   1.395       .  A
C1631      H1644   1.085       .  S
C1632      C1634   1.444       .  S
C1633      N1637   1.157       .  T
C1634      N1638   1.157       .  T
C1635      N1640   1.157       .  T
C1636      N1639   1.157       .  T
N1645      C1649   1.357       .  A
N1645      C1646   1.355       .  A
N1645      C1904   1.438       .  S
C1646      C1647   1.378       .  A
C1646      C1875   1.477       .  S
C1647      C1648   1.373       .  A
C1647      H1650   1.082       .  S
C1648      C1649   1.385       .  A
C1648      H1651   1.083       .  S
C1649      C1707   1.474       .  S
N1652      C1656   1.357       .  A
N1652      C1653   1.352       .  A
N1652      C1880   1.440       .  S
C1653      C1654   1.377       .  A
C1653      C1851   1.477       .  S
C1654      C1655   1.377       .  A
C1654      H1657   1.082       .  S
C1655      C1656   1.389       .  A
C1655      H1658   1.083       .  S
C1656      C1718   1.477       .  S
N1659      C1660   1.354       .  A
N1659      C1832   1.435       .  S
C1660      C1661   1.383       .  A
C1660      C1856   1.482   1_556  S
C1661      H1664   1.082       .  S
C1662      C1663   1.382       .  A
C1662      H1665   1.082       .  S
C1663      C1702   1.469       .  S
N1666      C1670   1.355       .  A
N1666      C1667   1.359       .  A
N1666      C1899   1.440       .  S
C1667      C1668   1.383       .  A
C1667      C1827   1.488       .  S
C1668      C1669   1.374   1_655  A
C1668      H1671   1.082       .  S
C1669      C1670   1.383   1_455  A
C1669      H1672   1.082       .  S
C1670      C1724   1.471       .  S
N1673      C1677   1.357       .  A
N1673      C1779   1.458       .  S
C1674      C1675   1.385       .  A
C1674      C1808   1.485       .  S
C1675      H1678   1.082       .  S
C1676      C1677   1.380       .  A
C1677      C1705   1.469       .  S
N1680      C1684   1.371       .  A
N1680      C1784   1.477       .  S
C1681      C1682   1.382       .  A
C1681      C1755   1.498       .  S
C1682      C1683   1.364       .  A
C1682      H1685   1.082       .  S
C1683      H1686   1.083       .  S
C1684      C1720   1.483       .  S
N1687      C1691   1.358       .  A
N1687      C1760   1.442       .  S
C1688      C1689   1.384       .  A
C1688      C1731   1.491   1_545  S
C1689      C1690   1.377       .  A
C1689      H1692   1.083   1_545  S
C1690      H1693   1.083       .  S
C1691      C1711   1.479       .  S
N1694      C1698   1.360       .  A
N1694      C1803   1.442       .  S
C1695      C1696   1.381       .  A
C1695      C1736   1.484       .  S
C1696      C1697   1.377       .  A
C1696      H1699   1.082       .  S
C1697      H1700   1.082       .  S
C1698      C1715   1.478       .  S
In1701     O1703   2.238       .  S
In1701     O1704   2.264       .  S
In1701     O1712   2.247       .  S
In1701     O1706   2.248       .  S
In1701     O1708   2.266       .  S
In1701     O1709   2.268       .  S
In1701     O1710   2.232       .  S
In1701     O1713   2.233       .  S
C1702      O1708   1.262       .  A
C1702      O1710   1.256       .  A
O1703      C1711   1.261       .  A
O1704      C1711   1.261       .  A
C1705      O1712   1.258       .  A
C1705      O1706   1.257       .  A
C1707      O1709   1.260       .  A
C1707      O1713   1.258       .  A
In1714     O1716   2.224       .  S
In1714     O1725   2.263       .  S
In1714     O1719   2.230       .  S
In1714     O1721   2.274       .  S
In1714     O1722   2.248       .  S
In1714     O1726   2.258       .  S
C1715      O1721   1.258       .  A
O1717      C1724   1.260       .  A
C1718      O1725   1.262       .  A
C1718      O1719   1.263       .  A
C1720      O1722   1.263       .  A
C1720      O1726   1.262       .  A
C1727      C1728   1.411       .  A
C1727      C1732   1.397       .  A
C1727      C1741   1.445       .  S
C1728      C1729   1.405       .  A
C1728      C1733   1.490       .  S
C1729      C1730   1.408   1_565  A
C1729      H1748   1.084       .  S
C1730      C1731   1.414   1_545  A
C1730      C1742   1.442       .  S
C1731      C1732   1.404       .  A
C1732      H1747   1.085       .  S
C1733      C1734   1.404       .  A
C1733      C1738   1.411       .  A
C1734      C1735   1.405       .  A
C1734      H1749   1.085       .  S
C1735      C1736   1.410       .  A
C1735      C1739   1.443       .  S
C1736      C1737   1.404       .  A
C1737      C1738   1.403       .  A
C1737      H1750   1.084   1_655  S
C1738      C1740   1.444   1_655  S
C1739      N1743   1.157       .  T
C1740      N1744   1.157       .  T
C1741      N1746   1.157       .  T
C1751      C1752   1.413       .  A
C1751      C1756   1.400       .  A
C1751      C1765   1.445       .  S
C1752      C1753   1.409       .  A
C1752      C1757   1.499       .  S
C1753      C1754   1.403       .  A
C1753      H1772   1.084       .  S
C1754      C1755   1.413       .  A
C1755      C1756   1.409       .  A
C1756      H1771   1.084       .  S
C1757      C1758   1.409       .  A
C1757      C1762   1.416       .  A
C1758      C1759   1.400       .  A
C1758      H1773   1.084       .  S
C1759      C1760   1.406       .  A
C1759      C1763   1.442       .  S
C1760      C1761   1.402       .  A
C1761      C1762   1.402       .  A
C1761      H1774   1.084       .  S
C1762      C1764   1.444       .  S
C1764      N1768   1.157       .  T
C1765      N1770   1.157       .  T
C1766      N1769   1.157       .  T
C1775      C1776   1.424       .  A
C1775      C1780   1.406       .  A
C1775      C1789   1.444       .  S
C1776      C1777   1.406       .  A
C1776      C1781   1.515       .  S
C1777      C1778   1.401       .  A
C1777      H1796   1.084       .  S
C1778      C1779   1.418       .  A
C1778      C1790   1.443       .  S
C1779      C1780   1.404       .  A
C1780      H1795   1.083       .  S
C1781      C1782   1.404       .  A
C1781      C1786   1.419       .  A
C1782      C1783   1.406       .  A
C1782      H1797   1.081       .  S
C1783      C1784   1.429       .  A
C1783      C1787   1.441       .  S
C1784      C1785   1.413       .  A
C1785      C1786   1.401       .  A
C1785      H1798   1.072       .  S
C1786      C1788   1.447       .  S
C1788      N1792   1.158       .  T
C1789      N1794   1.158       .  T
C1790      N1793   1.157       .  T
C1799      C1800   1.419       .  A
C1799      C1804   1.395       .  A
C1799      C1813   1.446       .  S
C1800      C1801   1.405       .  A
C1800      C1805   1.495       .  S
C1801      C1802   1.403       .  A
C1801      H1820   1.083       .  S
C1802      C1803   1.412       .  A
C1802      C1814   1.441       .  S
C1803      C1804   1.397       .  A
C1804      H1819   1.083       .  S
C1805      C1806   1.402       .  A
C1805      C1810   1.416       .  A
C1806      C1807   1.394       .  A
C1806      H1821   1.085       .  S
C1807      C1808   1.414       .  A
C1807      C1811   1.445       .  S
C1808      C1809   1.404       .  A
C1809      C1810   1.407       .  A
C1809      H1822   1.085       .  S
C1810      C1812   1.443       .  S
C1811      N1815   1.157       .  T
C1812      N1816   1.157       .  T
C1813      N1818   1.157       .  T
C1814      N1817   1.157       .  T
C1823      C1824   1.408   1_554  A
C1823      C1828   1.398       .  A
C1823      C1837   1.444       .  S
C1824      C1825   1.401       .  A
C1824      C1829   1.481       .  S
C1825      C1826   1.404       .  A
C1825      H2118   1.085       .  S
C1826      C1827   1.416   1_556  A
C1826      C1838   1.443       .  S
C1827      C1828   1.403       .  A
C1828      H1843   1.080       .  S
C1829      C1830   1.404   1_556  A
C1829      C1834   1.409       .  A
C1830      C2105   1.400   1_554  A
C1830      H2119   1.085       .  S
C1831      C2104   1.400       .  A
C1831      C2106   1.407       .  A
C1831      C1835   1.442       .  S
C1832      C2105   1.407       .  A
C1832      C1833   1.400       .  A
C1833      C1834   1.401       .  A
C1833      H1846   1.084       .  S
C1834      C1836   1.442       .  S
C1836      N1840   1.157       .  T
C1837      N1842   1.157       .  T
C1838      N2115   1.157       .  T
N1841      C2112   1.157       .  T
H1844      C2099   1.085       .  S
H1845      C2104   1.085       .  S
C1847      C1848   1.412       .  A
C1847      C1852   1.403       .  A
C1847      C1861   1.442       .  S
C1848      C1849   1.401       .  A
C1848      C1853   1.482       .  S
C1849      C1850   1.397       .  A
C1849      H1868   1.085       .  S
C1850      C1851   1.410       .  A
C1850      C1862   1.444       .  S
C1851      C1852   1.402       .  A
C1852      H1867   1.085       .  S
C1853      C1854   1.403       .  A
C1853      C1858   1.409       .  A
C1854      C1855   1.400   1_554  A
C1854      H1869   1.085       .  S
C1855      C1856   1.411   1_556  A
C1855      C2133   1.444       .  S
C1856      C1857   1.404       .  A
C1857      C1858   1.402       .  A
C1857      H1870   1.083       .  S
C1858      C1860   1.444       .  S
C1859      C2129   1.444       .  S
C1859      N1863   1.157       .  T
C1860      N1864   1.157       .  T
C1861      N1866   1.157       .  T
C1862      N1865   1.157       .  T
C1871      C1872   1.419       .  A
C1871      C1876   1.404   1_554  A
C1871      C1885   1.442       .  S
C1872      C1873   1.407       .  A
C1872      C1877   1.501       .  S
C1873      C1874   1.401   1_554  A
C1873      H1892   1.084       .  S
C1874      C2149   1.409       .  A
C1874      C2160   1.445       .  S
C1875      C2148   1.409       .  A
C1875      C2150   1.398       .  A
C1876      C2149   1.398       .  A
C1876      H1891   1.085       .  S
C1877      C1878   1.409       .  A
C1877      C1882   1.417       .  A
C1878      C1879   1.405       .  A
C1878      H1893   1.084       .  S
C1879      C1880   1.407       .  A
C1879      C1883   1.441       .  S
C1880      C1881   1.401       .  A
C1881      C1882   1.400       .  A
C1881      H1894   1.084       .  S
C1882      C1884   1.444       .  S
C1883      N1887   1.157       .  T
C1884      N1888   1.157       .  T
C1885      N1890   1.157       .  T
C1886      C2148   1.445       .  S
C1886      N1889   1.157       .  T
C1895      C2170   1.413       .  A
C1895      C1900   1.398       .  A
C1895      C1909   1.444       .  S
C1896      C2169   1.413   1_554  A
C1896      C1897   1.405       .  A
C1896      C2175   1.489   1_554  S
C1897      C1898   1.405       .  A
C1897      H1916   1.084       .  S
C1898      C1899   1.410       .  A
C1898      C1910   1.442       .  S
C1899      C2174   1.399       .  A
C1900      C2173   1.399       .  A
C1900      H1915   1.084       .  S
C1901      C1902   1.407       .  A
C1901      C1906   1.412       .  A
C1901      C2170   1.489       .  S
C1902      C1903   1.408       .  A
C1902      H2191   1.084       .  S
C1903      C1904   1.407       .  A
C1903      C1907   1.441       .  S
C1904      C1905   1.400       .  A
C1905      C1906   1.395       .  A
C1905      H1918   1.085       .  S
C1906      C1908   1.444       .  S
C1907      N1911   1.157       .  T
C1908      N1912   1.157       .  T
C1909      N1914   1.157       .  T
C1910      N1913   1.157       .  T
H1917      C2176   1.084       .  S
N1919      C1923   1.357       .  A
N1919      C1920   1.355       .  A
N1919      C2178   1.438       .  S
C1920      C1921   1.378       .  A
C1920      C2149   1.477       .  S
C1921      C1922   1.373       .  A
C1921      H1924   1.082       .  S
C1922      C1923   1.385       .  A
C1922      H1925   1.083       .  S
C1923      C1981   1.474       .  S
N1926      C1930   1.357       .  A
N1926      C1927   1.352       .  A
N1926      C2154   1.440       .  S
C1927      C1928   1.377       .  A
C1927      C2125   1.477       .  S
C1928      C1929   1.377       .  A
C1928      H1931   1.082       .  S
C1929      C1930   1.389       .  A
C1929      H1932   1.083       .  S
C1930      C1992   1.477       .  S
N1933      C1934   1.354       .  A
N1933      C2106   1.435       .  S
C1934      C1935   1.383       .  A
C1934      C2130   1.482       .  S
C1935      H1938   1.082       .  S
C1936      C1937   1.382       .  A
C1936      H1939   1.082       .  S
C1937      C1976   1.469       .  S
N1940      C1944   1.355       .  A
N1940      C1941   1.359       .  A
N1940      C2173   1.440       .  S
C1941      C1942   1.383       .  A
C1941      C2101   1.488       .  S
C1942      C1943   1.374   1_655  A
C1942      H1945   1.082       .  S
C1943      C1944   1.383   1_455  A
C1943      H1946   1.082       .  S
C1944      C1998   1.471       .  S
N1947      C1951   1.357       .  A
N1947      C2053   1.458       .  S
C1948      C1949   1.385       .  A
C1948      C2082   1.485       .  S
C1949      H1952   1.082       .  S
C1950      C1951   1.380       .  A
C1951      C1979   1.469       .  S
N1954      C1958   1.371       .  A
N1954      C2058   1.477       .  S
C1955      C1956   1.382       .  A
C1955      C2029   1.498       .  S
C1956      C1957   1.364       .  A
C1956      H1959   1.082       .  S
C1957      H1960   1.083       .  S
C1958      C1994   1.483       .  S
N1961      C1965   1.358       .  A
N1961      C2034   1.442       .  S
C1962      C1963   1.384       .  A
C1962      C2005   1.491   1_545  S
C1963      C1964   1.377       .  A
C1963      H1966   1.082   1_545  S
C1964      H1967   1.083       .  S
C1965      C1985   1.479       .  S
N1968      C1972   1.360       .  A
N1968      C2077   1.442       .  S
C1969      C1970   1.381       .  A
C1969      C2010   1.484       .  S
C1970      C1971   1.377       .  A
C1970      H1973   1.082       .  S
C1971      H1974   1.082       .  S
C1972      C1989   1.478       .  S
In1975     O1977   2.238       .  S
In1975     O1978   2.264       .  S
In1975     O1986   2.247       .  S
In1975     O1980   2.248       .  S
In1975     O1982   2.266       .  S
In1975     O1983   2.268       .  S
In1975     O1984   2.232       .  S
In1975     O1987   2.233       .  S
C1976      O1982   1.262       .  A
C1976      O1984   1.256       .  A
O1977      C1985   1.261       .  A
O1978      C1985   1.261       .  A
C1979      O1986   1.258       .  A
C1979      O1980   1.257       .  A
C1981      O1983   1.260       .  A
C1981      O1987   1.258       .  A
In1988     O1990   2.224       .  S
In1988     O1999   2.263       .  S
In1988     O1993   2.230       .  S
In1988     O1995   2.274       .  S
In1988     O1996   2.248       .  S
In1988     O2000   2.258       .  S
C1989      O1995   1.258       .  A
O1991      C1998   1.260       .  A
C1992      O1999   1.262       .  A
C1992      O1993   1.263       .  A
C1994      O1996   1.263       .  A
C1994      O2000   1.262       .  A
C2001      C2002   1.411       .  A
C2001      C2006   1.397       .  A
C2001      C2015   1.445       .  S
C2002      C2003   1.405       .  A
C2002      C2007   1.490       .  S
C2003      C2004   1.408   1_565  A
C2003      H2022   1.084       .  S
C2004      C2005   1.414   1_545  A
C2004      C2016   1.442       .  S
C2005      C2006   1.404       .  A
C2006      H2021   1.085       .  S
C2007      C2008   1.404       .  A
C2007      C2012   1.411       .  A
C2008      C2009   1.405       .  A
C2008      H2023   1.085       .  S
C2009      C2010   1.410       .  A
C2009      C2013   1.443       .  S
C2010      C2011   1.404       .  A
C2011      C2012   1.402       .  A
C2011      H2024   1.084   1_655  S
C2012      C2014   1.444   1_655  S
C2013      N2017   1.157       .  T
C2014      N2018   1.157       .  T
C2015      N2020   1.157       .  T
C2025      C2026   1.413       .  A
C2025      C2030   1.400       .  A
C2025      C2039   1.445       .  S
C2026      C2027   1.409       .  A
C2026      C2031   1.499       .  S
C2027      C2028   1.403       .  A
C2027      H2046   1.084       .  S
C2028      C2029   1.413       .  A
C2029      C2030   1.409       .  A
C2030      H2045   1.084       .  S
C2031      C2032   1.409       .  A
C2031      C2036   1.416       .  A
C2032      C2033   1.400       .  A
C2032      H2047   1.084       .  S
C2033      C2034   1.406       .  A
C2033      C2037   1.442       .  S
C2034      C2035   1.402       .  A
C2035      C2036   1.402       .  A
C2035      H2048   1.084       .  S
C2036      C2038   1.444       .  S
C2038      N2042   1.157       .  T
C2039      N2044   1.157       .  T
C2040      N2043   1.157       .  T
C2049      C2050   1.424       .  A
C2049      C2054   1.406       .  A
C2049      C2063   1.444       .  S
C2050      C2051   1.406       .  A
C2050      C2055   1.515       .  S
C2051      C2052   1.401       .  A
C2051      H2070   1.084       .  S
C2052      C2053   1.418       .  A
C2052      C2064   1.443       .  S
C2053      C2054   1.404       .  A
C2054      H2069   1.083       .  S
C2055      C2056   1.404       .  A
C2055      C2060   1.419       .  A
C2056      C2057   1.406       .  A
C2056      H2071   1.081       .  S
C2057      C2058   1.429       .  A
C2057      C2061   1.441       .  S
C2058      C2059   1.413       .  A
C2059      C2060   1.402       .  A
C2059      H2072   1.071       .  S
C2060      C2062   1.447       .  S
C2062      N2066   1.158       .  T
C2063      N2068   1.158       .  T
C2064      N2067   1.157       .  T
C2073      C2074   1.419       .  A
C2073      C2078   1.395       .  A
C2073      C2087   1.446       .  S
C2074      C2075   1.405       .  A
C2074      C2079   1.495       .  S
C2075      C2076   1.403       .  A
C2075      H2094   1.083       .  S
C2076      C2077   1.412       .  A
C2076      C2088   1.441       .  S
C2077      C2078   1.397       .  A
C2078      H2093   1.083       .  S
C2079      C2080   1.402       .  A
C2079      C2084   1.416       .  A
C2080      C2081   1.394       .  A
C2080      H2095   1.085       .  S
C2081      C2082   1.414       .  A
C2081      C2085   1.445       .  S
C2082      C2083   1.404       .  A
C2083      C2084   1.407       .  A
C2083      H2096   1.085       .  S
C2084      C2086   1.443       .  S
C2085      N2089   1.157       .  T
C2086      N2090   1.157       .  T
C2087      N2092   1.157       .  T
C2088      N2091   1.157       .  T
C2097      C2098   1.408       .  A
C2097      C2102   1.398       .  A
C2097      C2111   1.444       .  S
C2098      C2099   1.401       .  A
C2098      C2103   1.481       .  S
C2099      C2100   1.404       .  A
C2100      C2101   1.416       .  A
C2100      C2112   1.443       .  S
C2101      C2102   1.403       .  A
C2102      H2117   1.080       .  S
C2103      C2104   1.404       .  A
C2103      C2108   1.409       .  A
C2105      C2109   1.442   1_556  S
C2106      C2107   1.400       .  A
C2107      C2108   1.401       .  A
C2107      H2120   1.084       .  S
C2108      C2110   1.442       .  S
C2110      N2114   1.157       .  T
C2111      N2116   1.157       .  T
C2121      C2122   1.412       .  A
C2121      C2126   1.403       .  A
C2121      C2135   1.442       .  S
C2122      C2123   1.401       .  A
C2122      C2127   1.482       .  S
C2123      C2124   1.397       .  A
C2123      H2142   1.085       .  S
C2124      C2125   1.410       .  A
C2124      C2136   1.444       .  S
C2125      C2126   1.402       .  A
C2126      H2141   1.085       .  S
C2127      C2128   1.403       .  A
C2127      C2132   1.409       .  A
C2128      C2129   1.400       .  A
C2128      H2143   1.085       .  S
C2129      C2130   1.411       .  A
C2130      C2131   1.404       .  A
C2131      C2132   1.402       .  A
C2131      H2144   1.083       .  S
C2132      C2134   1.444       .  S
C2133      N2137   1.157       .  T
C2134      N2138   1.157       .  T
C2135      N2140   1.157       .  T
C2136      N2139   1.157       .  T
C2145      C2146   1.419       .  A
C2145      C2150   1.404       .  A
C2145      C2159   1.442       .  S
C2146      C2147   1.407       .  A
C2146      C2151   1.501       .  S
C2147      C2148   1.401       .  A
C2147      H2166   1.084       .  S
C2150      H2165   1.085       .  S
C2151      C2152   1.409       .  A
C2151      C2156   1.417       .  A
C2152      C2153   1.405       .  A
C2152      H2167   1.084       .  S
C2153      C2154   1.407       .  A
C2153      C2157   1.441       .  S
C2154      C2155   1.401       .  A
C2155      C2156   1.400       .  A
C2155      H2168   1.084       .  S
C2156      C2158   1.444       .  S
C2157      N2161   1.157       .  T
C2158      N2162   1.157       .  T
C2159      N2164   1.157       .  T
C2160      N2163   1.157       .  T
C2169      C2174   1.398   1_556  A
C2169      C2183   1.444       .  S
C2170      C2171   1.405       .  A
C2171      C2172   1.405       .  A
C2171      H2190   1.084       .  S
C2172      C2173   1.410       .  A
C2172      C2184   1.442       .  S
C2174      H2189   1.084   1_554  S
C2175      C2176   1.407   1_556  A
C2175      C2180   1.412       .  A
C2176      C2177   1.408   1_554  A
C2177      C2178   1.407       .  A
C2177      C2181   1.441   1_556  S
C2178      C2179   1.400       .  A
C2179      C2180   1.395       .  A
C2179      H2192   1.084       .  S
C2180      C2182   1.444       .  S
C2181      N2185   1.157       .  T
C2182      N2186   1.157       .  T
C2183      N2188   1.157       .  T
C2184      N2187   1.157       .  T
