geometry optimzed in LAMMPS
_audit_creation_date              2020-12-01 
_audit_creation_method            'lammps2cif' 
_symmetry_space_group_name_H-M    'P1' 
_symmetry_Int_Tables_number       1 
_symmetry_cell_setting            triclinic 
loop_ 
_symmetry_equiv_pos_as_xyz 
  x,y,z 
_cell_length_a                    42.91399007 
_cell_length_b                    38.265190094862035 
_cell_length_c                    38.30099361283097 
_cell_angle_alpha                 88.69865149366179 
_cell_angle_beta                  92.32683217355606 
_cell_angle_gamma                 94.63570537748707 
loop_ 
_atom_site_label 
_atom_site_type_symbol 
_atom_site_fract_x 
_atom_site_fract_y 
_atom_site_fract_z 
_atom_site_charge 
C1          C  0.40591086  0.35549681  0.34152101     0.85600
C2          C  0.42283855  0.38171085  0.36713177    -0.54600
C3          C  0.40449467  0.39878330  0.38837459     0.08500
C4          C  0.36840777  0.38810942  0.38124220     0.19500
C5          C  0.38443799  0.33071727  0.36573405    -0.55400
C6          C  0.36416055  0.34707075  0.38651306     0.08600
C7          C  0.38202245  0.37794266  0.32089127    -0.54900
C8          C  0.36197698  0.39517442  0.34091321     0.09200
H9          H  0.44816837  0.38644042  0.36838795     0.13700
H10         H  0.35313290  0.40219280  0.39787193    -0.00500
H11         H  0.38495262  0.30241135  0.36573418     0.14000
H12         H  0.38129282  0.38019326  0.29258286     0.13800
C13         C  0.14644587  0.11273204  0.16194429     0.85600
C14         C  0.12362731  0.13323215  0.18282148    -0.54600
C15         C  0.10281858  0.15279066  0.16352373     0.08500
C16         C  0.10881388  0.15086299  0.12248537     0.19500
C17         C  0.12407780  0.09144511  0.13586652    -0.55400
C18         C  0.10413098  0.11038394  0.11508318     0.08600
C19         C  0.16333627  0.14108118  0.13857699    -0.54900
C20         C  0.14528095  0.16132774  0.11678053     0.09200
H21         H  0.12296625  0.13068968  0.21106748     0.13700
H22         H  0.09298297  0.16641464  0.10591531    -0.00500
H23         H  0.12373761  0.06311509  0.13440341     0.14000
H24         H  0.18870169  0.14371434  0.13845556     0.13800
N25         N  0.04436068  0.52271925  0.43654362    -0.07000
N26         N  0.06739601  0.51535748  0.41705758    -0.59100
N27         N  0.49173506  0.07666501  0.45483947    -0.06700
N28         N  0.47415657  0.10315071  0.45324990    -0.61300
N29         N  0.01844809  0.08567185  0.47195586    -0.06300
N30         N  0.01927623  0.11863107  0.48190211    -0.59100
N31         N  0.01731301  0.51405290  0.42009364    -0.06000
N32         N  0.02142130  0.50123485  0.38908712    -0.61600
C33         C  0.05274744  0.50248644  0.38767728     0.95200
C34         C  0.99120663  0.12896896  0.47032670     0.94900
N35         N  0.42017800  0.01804712  0.49332341    -0.07200
N36         N  0.39650928  0.03376328  0.00505663    -0.59700
N37         N  0.45111920  0.46834854  0.43311056    -0.05300
N38         N  0.43986224  0.45362416  0.40358364    -0.61000
N39         N  0.43936157  0.45083719  0.46019743    -0.07200
N40         N  0.41984364  0.42394714  0.44930315    -0.60000
N41         N  0.42983211  0.03360160  0.46448481    -0.05000
N42         N  0.41288312  0.05949830  0.45528605    -0.61000
Mn43       Mn  0.47305191  0.02305600  0.44196042     1.18400
C44         C  0.39198475  0.05912482  0.48039275     0.97300
C45         C  0.42016925  0.42583651  0.41369421     0.97900
N46         N  0.05707200  0.06946422  0.04374956    -0.07200
N47         N  0.07752836  0.09545864  0.05488459    -0.63600
N48         N  0.06685446  0.48551566  0.03739281    -0.06000
N49         N  0.08362269  0.45921057  0.04564661    -0.64200
N50         N  0.07666709  0.50221029  0.50914292    -0.06700
N51         N  0.10021653  0.48667134  0.49673559    -0.63800
N52         N  0.04689808  0.05044002  0.07064278    -0.05600
N53         N  0.06065995  0.06284188  0.10011615    -0.64500
Mn54       Mn  0.04994560  0.04607353  0.48945748     1.10700
C55         C  0.07925738  0.09170053  0.09044953     0.98500
C56         C  0.10456318  0.46037826  0.02052628     0.98500
N57         N  0.47697877  0.43457083  0.03190946    -0.06800
N58         N  0.47476561  0.40139107  0.02247697    -0.62100
N59         N  0.48052558  0.00731640  0.08226132    -0.06100
N60         N  0.47779253  0.02188671  0.11262304    -0.58900
N61         N  0.45293582  0.00011936  0.06641835    -0.07400
N62         N  0.43082291  0.01029931  0.08591576    -0.61700
N63         N  0.50428017  0.44279914  0.04804450    -0.06400
N64         N  0.02094649  0.41558417  0.04958778    -0.58900
Mn65       Mn  0.44644274  0.47489464  0.01409023     1.20200
Mn66       Mn  0.02412632  0.49629107  0.06065346     1.10100
Cl67       Cl  0.49841758  0.00995293  0.50154203    -0.86900
C68         C  0.50260923  0.39004780  0.03335163     0.95500
C69         C  0.44685499  0.02400876  0.11421336     0.95300
N70         N  0.29746032  0.20596826  0.52171994    -0.07000
N71         N  0.30908354  0.17567234  0.51851451    -0.59100
N72         N  0.29152159  0.27541817  0.06729234    -0.06700
N73         N  0.30483539  0.28992806  0.09561288    -0.61300
N74         N  0.27104544  0.24967104  0.07662884    -0.06300
N75         N  0.26991297  0.24652846  0.11068711    -0.59100
N76         N  0.31692890  0.23171802  0.51005989    -0.06000
N77         N  0.34238033  0.21906075  0.49871815    -0.61600
C78         C  0.33680001  0.18415732  0.50450177     0.95200
C79         C  0.29111258  0.27157806  0.12237772     0.94900
N80         N  0.26736586  0.34914487  0.99292979    -0.07200
N81         N  0.26099869  0.38159208  0.99929304    -0.59700
N82         N  0.31806686  0.30043383  0.45517492    -0.05300
N83         N  0.34589863  0.31062150  0.44188889    -0.61000
N84         N  0.29547083  0.31033545  0.43372749    -0.07200
N85         N  0.30778317  0.32760859  0.40607291    -0.60000
N86         N  0.28985506  0.33946797  0.01425967    -0.05000
N87         N  0.29947561  0.36496313  0.03556445    -0.61000
Mn88       Mn  0.30520354  0.28640205  0.01201512     1.18400
C89         C  0.28144515  0.39127319  0.02594274     0.97300
C90         C  0.33954312  0.32722899  0.41058967     0.97900
N91         N  0.20389349  0.21070638  0.06459366    -0.07200
N92         N  0.19493093  0.19288731  0.09309756    -0.63600
N93         N  0.20845842  0.17966664  0.48378646    -0.06000
N94         N  0.19993765  0.15315128  0.46310574    -0.64200
N95         N  0.23123728  0.17156292  0.50542233    -0.06700
N96         N  0.23887562  0.13947939  0.50031992    -0.63800
N97         N  0.17953629  0.21670513  0.04405032    -0.05600
N98         N  0.15344584  0.20177600  0.05882964    -0.64500
Mn99       Mn  0.25132150  0.21001174  0.04241725     1.10700
C100        C  0.16325016  0.18732371  0.09043781     0.98500
C101        C  0.21905520  0.12807433  0.47394324     0.98500
N102        N  0.22510335  0.27061309  0.42034155    -0.06800
N103        N  0.22858881  0.26900203  0.38633984    -0.62100
N104        N  0.18092611  0.28815210  0.98911530    -0.06100
N105        N  0.15615719  0.30082411  0.00224379    -0.58900
N106        N  0.20012236  0.31420595  0.97708830    -0.07400
N107        N  0.18892907  0.34448009  0.98210874    -0.61700
N108        N  0.20638387  0.24380490  0.43149941    -0.06400
N109        N  0.19768088  0.22335831  0.40514060    -0.58900
Mn110      Mn  0.24633724  0.31122952  0.45482072     1.20200
Mn111      Mn  0.19224594  0.23262226  0.48660052     1.10100
Cl112      Cl  0.24869644  0.26024662  0.99860279    -0.86900
C113        C  0.21177885  0.23903746  0.37725229     0.95500
C114        C  0.16186317  0.33590089  0.99754000     0.95300
N115        N  0.44490950  0.25152736  0.19588759    -0.07000
N116        N  0.41582882  0.23858824  0.19021444    -0.59100
N117        N  0.50977615  0.29955973  0.17695606    -0.06700
N118        N  0.02051519  0.32104195  0.15180388    -0.61300
N119        N  0.51073906  0.26690707  0.16694586    -0.06300
N120        N  0.02212084  0.26572639  0.13573079    -0.59100
N121        N  0.44488706  0.28368340  0.20754768    -0.06000
N122        N  0.41626277  0.29303475  0.21010466    -0.61600
C123        C  0.39835347  0.26456795  0.19954062     0.95200
C124        C  0.02869438  0.29945826  0.12648475     0.94900
N125        N  0.04074029  0.32887630  0.27867930    -0.07200
N126        N  0.07073111  0.33716824  0.28309083    -0.59700
N127        N  0.46106988  0.32430891  0.27746128    -0.05300
N128        N  0.43486367  0.33991050  0.28361183    -0.61000
N129        N  0.47333278  0.31309274  0.30726281    -0.07200
N130        N  0.45579037  0.32077443  0.33373789    -0.60000
N131        N  0.03079987  0.33788347  0.24716388    -0.05000
N132        N  0.05458331  0.35149251  0.22904238    -0.61000
Mn133      Mn  0.48634339  0.31294713  0.22649207     1.18400
C134        C  0.07927366  0.35106343  0.25218071     0.97300
C135        C  0.43126586  0.33758767  0.31921090     0.97900
N136        N  0.03308322  0.19395838  0.19266406    -0.07200
N137        N  0.05102624  0.18568817  0.16656261    -0.63600
N138        N  0.47635972  0.16932584  0.25389277    -0.06000
N139        N  0.45450377  0.15491655  0.27412253    -0.64200
N140        N  0.46394243  0.17984826  0.22399294    -0.06700
N141        N  0.43330429  0.17286649  0.22355012    -0.63800
N142        N  0.04514421  0.18352843  0.22286202    -0.05600
N143        N  0.07144255  0.16809655  0.21759224    -0.64500
Mn144      Mn  0.48800807  0.22243638  0.19359324     1.10700
C145        C  0.07544336  0.16933557  0.18214386     0.98500
C146        C  0.42776490  0.15703733  0.25478375     0.98500
N147        N  0.99550084  0.24137235  0.33182924    -0.06800
N148        N  0.48110382  0.24359023  0.36111550    -0.62100
N149        N  0.06163599  0.22388414  0.29255435    -0.06100
N150        N  0.08925861  0.21169042  0.29220878    -0.58900
N151        N  0.06309638  0.25606099  0.30454215    -0.07400
N152        N  0.09289044  0.26615707  0.31259405    -0.61700
N153        N  0.99629977  0.20863830  0.32237197    -0.06400
N154        N  0.48259371  0.18782978  0.34641283    -0.58900
Mn155      Mn  0.01853267  0.28535493  0.30667588     1.20200
Mn156      Mn  0.02025947  0.19514647  0.27345938     1.10100
Cl157      Cl  0.50349668  0.25411211  0.24983801    -0.86900
C158        C  0.47285144  0.21027735  0.37010658     0.95500
C159        C  0.10867093  0.23793832  0.30457851     0.95300
N160        N  0.29370187  0.43854922  0.30573033    -0.07000
N161        N  0.30620851  0.40953325  0.31807397    -0.59100
N162        N  0.27173542  0.01054454  0.34336171    -0.06700
N163        N  0.26996375  0.03175134  0.36954393    -0.61300
N164        N  0.24890434  0.98572486  0.34340504    -0.06300
N165        N  0.23037715  0.98985684  0.36956955    -0.59100
N166        N  0.31541936  0.46482469  0.30526523    -0.06000
N167        N  0.34285560  0.45408233  0.31713991    -0.61600
C168        C  0.33728865  0.41916856  0.32484810     0.95200
C169        C  0.24442269  0.01834071  0.38594173     0.94900
N170        N  0.27534120  0.08911356  0.26395176    -0.07200
N171        N  0.28723671  0.12214410  0.26327140    -0.59700
N172        N  0.32637519  0.53058196  0.25142983    -0.05300
N173        N  0.35647556  0.52726410  0.24795586    -0.61000
N174        N  0.31388394  0.54470746  0.22294853    -0.07200
N175        N  0.33529605  0.55138166  0.19974500    -0.60000
N176        N  0.28455990  0.07399871  0.29363858    -0.05000
N177        N  0.29971638  0.09734575  0.31389466    -0.61000
Mn178      Mn  0.29988737  0.01993693  0.29826883     1.18400
C179        C  0.30341452  0.12682835  0.29425210     0.97300
C180        C  0.36155476  0.54057605  0.21560949     0.97900
N181        N  0.19316328  0.96455242  0.29194763    -0.07200
N182        N  0.17218315  0.95810858  0.31584438    -0.63600
N183        N  0.21977122  0.43376051  0.22211480    -0.06000
N184        N  0.20292565  0.40826222  0.20603435    -0.64200
N185        N  0.23431555  0.42085731  0.25008996    -0.06700
N186        N  0.22744326  0.38673085  0.25244427    -0.63800
N187        N  0.18007381  0.97807709  0.26348449    -0.05600
N188        N  0.14996501  0.98046539  0.26746395    -0.64500
Mn189      Mn  0.24254766  0.45161400  0.29766379     1.10700
C190        C  0.14541039  0.96755993  0.30014603     0.98500
C191        C  0.20637485  0.37927509  0.22607711     0.98500
N192        N  0.25790073  0.52273513  0.17087688    -0.06800
N193        N  0.27564556  0.51965826  0.14378123    -0.62100
N194        N  0.19131408  0.04445393  0.20757082    -0.06100
N195        N  0.16440564  0.05492425  0.19351844    -0.58900
N196        N  0.21320117  0.07072166  0.20715301    -0.07400
N197        N  0.20109502  0.09911767  0.19256286    -0.61700
N198        N  0.23531893  0.49746844  0.17113010    -0.06400
N199        N  0.23671963  0.47695380  0.14423760    -0.58900
Mn200      Mn  0.26492039  0.05788025  0.21621765     1.20200
Mn201      Mn  0.20605848  0.48849380  0.21598231     1.10100
Cl202      Cl  0.25316306  0.00468206  0.25699052    -0.86900
C203        C  0.26170196  0.49122704  0.12726713     0.95500
C204        C  0.17004966  0.08965838  0.18463566     0.95300
C205        C  0.35969193  0.12565341  0.30985854    -0.13200
C206        C  0.33551051  0.14465449  0.29457730     0.03800
C207        C  0.34375270  0.17252772  0.27132957    -0.08400
C208        C  0.37429471  0.17685226  0.25930115    -0.09200
C209        C  0.39668988  0.15349310  0.27004371    -0.03700
C210        C  0.38961922  0.12878341  0.29678984     0.03100
N211        N  0.41099598  0.10350791  0.30773531     0.65600
H212        H  0.35472145  0.10481313  0.32870216     0.14500
H213        H  0.38023403  0.19779604  0.24112404     0.14200
N214        N  0.32155262  0.19659873  0.25981928     0.73300
O215        O  0.42408069  0.10542893  0.33779678    -0.40200
O216        O  0.41049488  0.07514421  0.29146417    -0.40100
O217        O  0.32322099  0.22674141  0.27280636    -0.40800
O218        O  0.30540686  0.19091108  0.23199632    -0.40900
C219        C  0.13376913  0.35689625  0.27227914    -0.13200
C220        C  0.11240460  0.35397412  0.24387085     0.03800
C221        C  0.12329195  0.34859671  0.21043187    -0.08400
C222        C  0.15558525  0.35103424  0.20541825    -0.09200
C223        C  0.17711630  0.35807202  0.23364567    -0.03700
C224        C  0.16565578  0.35781294  0.26799568     0.03100
N225        N  0.18544736  0.36170318  0.29898931     0.65600
H226        H  0.12573121  0.35899776  0.29848856     0.14500
H227        H  0.16380107  0.35054405  0.17901081     0.14200
N228        N  0.10197127  0.34090204  0.18157875     0.73300
O229        O  0.19350023  0.39212608  0.30962937    -0.40200
O230        O  0.18476122  0.33691594  0.32125816    -0.40100
O231        O  0.08894508  0.36561673  0.16612196    -0.40800
O232        O  0.09093667  0.30967281  0.17707299    -0.40900
C233        C  0.25491996  0.47335258  0.06605945    -0.13200
C234        C  0.27346881  0.47435278  0.09701006     0.03800
C235        C  0.29808912  0.45229659  0.10111922    -0.08400
C236        C  0.30191262  0.42749873  0.07575568    -0.09200
C237        C  0.28115487  0.42367686  0.04647075    -0.03700
C238        C  0.25870879  0.44849106  0.04057885     0.03100
N239        N  0.23856578  0.44800072  0.00994710     0.65600
H240        H  0.23605951  0.49033070  0.06271853     0.14500
H241        H  0.31979980  0.40949401  0.08052378     0.14200
N242        N  0.31710298  0.45177465  0.13261208     0.73300
O243        O  0.21201468  0.43131985  0.01065307    -0.40200
O244        O  0.24364154  0.47107944  0.98638966    -0.40100
O245        O  0.31023725  0.42898008  0.15597788    -0.40800
O246        O  0.34443681  0.46666362  0.13273052    -0.40900
C247        C  0.20184451  0.08767079  0.42589765    -0.13200
C248        C  0.22085131  0.09439049  0.45610993     0.03800
C249        C  0.24313181  0.07038360  0.46639484    -0.08400
C250        C  0.24836074  0.04300744  0.44438537    -0.09200
C251        C  0.23096903  0.03808995  0.41300985    -0.03700
C252        C  0.20666778  0.05969267  0.40441479     0.03100
N253        N  0.18890129  0.05595390  0.37216571     0.65600
H254        H  0.18440295  0.10527473  0.41772006     0.14500
H255        H  0.26734532  0.02682637  0.45082220     0.14200
N256        N  0.26142027  0.07380708  0.49835022     0.73300
O257        O  0.16163512  0.04091243  0.37228180    -0.40200
O258        O  0.19709150  0.07468884  0.34605811    -0.40100
O259        O  0.25281310  0.05566685  0.52467504    -0.40800
O260        O  0.28931312  0.08697888  0.49767859    -0.40900
C261        C  0.16519819  0.26008353  0.30467258    -0.13200
C262        C  0.14206114  0.23325612  0.31202842     0.03800
C263        C  0.15173159  0.20067371  0.32510965    -0.08400
C264        C  0.18214259  0.19897019  0.33874012    -0.09200
C265        C  0.20179962  0.22971906  0.34120756    -0.03700
C266        C  0.19625059  0.25704987  0.31708306     0.03100
N267        N  0.22172499  0.27968898  0.30387682     0.65600
H268        H  0.15909903  0.28274399  0.28895856     0.14500
H269        H  0.18780381  0.17579007  0.35381827     0.14200
N270        N  0.13055273  0.17006194  0.32798452     0.73300
O271        O  0.21837395  0.29521024  0.27467546    -0.40200
O272        O  0.24898872  0.27873441  0.31736935    -0.40100
O273        O  0.13108357  0.14650673  0.30552801    -0.40800
O274        O  0.11877436  0.16225628  0.35707278    -0.40900
C275        C  0.32010867  0.29498194  0.17389848    -0.13200
C276        C  0.30883425  0.26583230  0.15467836     0.03800
C277        C  0.32208943  0.23342631  0.16023185    -0.08400
C278        C  0.34976076  0.23259122  0.17993356    -0.09200
C279        C  0.36439967  0.26345004  0.19370285    -0.03700
C280        C  0.34774475  0.29387831  0.19414287     0.03100
N281        N  0.35951689  0.32466956  0.21231621     0.65600
H282        H  0.30934885  0.31941365  0.17045974     0.14500
H283        H  0.36150380  0.20870486  0.18060751     0.14200
N284        N  0.31150297  0.20285972  0.14088535     0.73300
O285        O  0.37228390  0.35018027  0.19528035    -0.40200
O286        O  0.34894768  0.33012281  0.24180509    -0.40100
O287        O  0.32459700  0.19679480  0.11298070    -0.40800
O288        O  0.29529600  0.17832264  0.15574224    -0.40900
C289        C  0.38756392  0.11069071  0.51507682    -0.13200
C290        C  0.37663826  0.09064904  0.48641840     0.03800
C291        C  0.35695339  0.10486412  0.46048830    -0.08400
C292        C  0.34653841  0.13794113  0.46508248    -0.09200
C293        C  0.35616882  0.15711336  0.49482491    -0.03700
C294        C  0.37711998  0.14366272  0.51975162     0.03100
N295        N  0.38706567  0.16260709  0.55047724     0.65600
H296        H  0.40495306  0.10109234  0.53322718     0.14500
H297        H  0.32967932  0.14789077  0.44637452     0.14200
N298        N  0.34683734  0.08576602  0.42988959     0.73300
O299        O  0.37140881  0.15811168  0.57761864    -0.40200
O300        O  0.41456123  0.17697543  0.55289129    -0.40100
O301        O  0.32022998  0.06914914  0.92879610    -0.40800
O302        O  0.36075389  0.09232723  0.40182239    -0.40900
C303        C  0.15222230  0.38320001  0.03633900    -0.13200
C304        C  0.14226908  0.36293613  0.00739628     0.03800
C305        C  0.12049060  0.37532167  0.98275689    -0.08400
C306        C  0.11043367  0.40879305  0.98596783    -0.09200
C307        C  0.12098407  0.42949216  0.01437393    -0.03700
C308        C  0.14095203  0.41599701  0.04055199     0.03100
N309        N  0.14994118  0.43525575  0.07141339     0.65600
H310        H  0.16945072  0.37403717  0.05500157     0.14500
H311        H  0.09345128  0.41803877  0.96706823     0.14200
N312        N  0.10849931  0.35416654  0.95428298     0.73300
O313        O  0.13537774  0.42835557  0.09901487    -0.40200
O314        O  0.17603016  0.45298412  0.07321300    -0.40100
O315        O  0.08133073  0.33899361  0.95547827    -0.40800
O316        O  0.12225485  0.35610524  0.92574877    -0.40900
C317        C  0.09378875  0.99052627  0.30524592    -0.13200
C318        C  0.11607571  0.96816296  0.31824096     0.03800
C319        C  0.11194121  0.45099123  0.35069231    -0.08400
C320        C  0.08882205  0.46067421  0.37195320    -0.09200
C321        C  0.06937560  0.48654179  0.36080434    -0.03700
C322        C  0.07021876  0.99978674  0.32646901     0.03100
N323        N  0.04957035  0.02503933  0.31365834     0.65600
H324        H  0.09609058  0.00308724  0.27984436     0.14500
H325        H  0.08721269  0.44939482  0.39801007     0.14200
N326        N  0.13155834  0.42465339  0.36333243     0.73300
O327        O  0.05833448  0.05722843  0.31575090    -0.40200
O328        O  0.02794707  0.51601165  0.29190654    -0.40100
O329        O  0.15134904  0.93185239  0.38826314    -0.40800
O330        O  0.12319835  0.39297640  0.35710257    -0.40900
C331        C  0.39446089  0.56773659  0.17106333    -0.13200
C332        C  0.39108889  0.54245623  0.19791602     0.03800
C333        C  0.41202305  0.51591315  0.20133168    -0.08400
C334        C  0.43243289  0.01172163  0.17464337    -0.09200
C335        C  0.43216283  0.03426699  0.14535228    -0.03700
C336        C  0.41478507  0.06369144  0.14490036     0.03100
N337        N  0.41420722  0.08721072  0.11554318     0.65600
H338        H  0.37924172  0.58889106  0.16887405     0.14500
H339        H  0.44646336  0.98951845  0.17526468     0.14200
N340        N  0.41030359  0.49037757  0.22913126     0.73300
O341        O  0.39074646  0.58152359  0.09240697    -0.40200
O342        O  0.42951246  0.11671997  0.11755137    -0.40100
O343        O  0.39589939  0.46080664  0.22372273    -0.40800
O344        O  0.42898394  0.99200318  0.25434790    -0.40900
C345        C  0.49593832  0.30587929  0.07386489    -0.13200
C346        C  0.02612950  0.30968791  0.08962917     0.03800
C347        C  0.05033639  0.32837143  0.07173916    -0.08400
C348        C  0.04242495  0.34938598  0.04300092    -0.09200
C349        C  0.51075862  0.35359152  0.03466859    -0.03700
C350        C  0.48817739  0.32742510  0.04558253     0.03100
N351        N  0.45635025  0.32654868  0.03292886     0.65600
H352        H  0.47754181  0.28951242  0.08608901     0.14500
H353        H  0.06041476  0.36747285  0.03223882     0.14400
N354        N  0.08231095  0.32866066  0.08365255     0.73300
O355        O  0.44684781  0.30439396  0.01018963    -0.40200
O356        O  0.43656500  0.34028324  0.05064194    -0.40100
O357        O  0.09938149  0.30766656  0.07019710    -0.40800
O358        O  0.09517777  0.35606439  0.09738635    -0.40900
C359        C  0.00024331  0.20860237  0.42663740    -0.13200
C360        C  0.47212995  0.20143308  0.40710487     0.03800
C361        C  0.44623920  0.18425251  0.42316976    -0.08400
C362        C  0.45105640  0.16781589  0.45570057    -0.09200
C363        C  0.98206125  0.16508067  0.46850635    -0.03700
C364        C  0.00498898  0.19119220  0.45842029     0.03100
N365        N  0.03512419  0.19527021  0.47579690     0.65600
H366        H  0.01936555  0.22450695  0.41577470     0.14500
H367        H  0.43244365  0.15057899  0.46569465     0.14200
N368        N  0.41600829  0.18082546  0.40599966     0.73300
O369        O  0.05757402  0.18078809  0.46348478    -0.40200
O370        O  0.04108715  0.22086545  0.49584598    -0.40100
O371        O  0.40769087  0.15336054  0.38935737    -0.40800
O372        O  0.39543599  0.20030094  0.41485530    -0.40900
C373        C  0.40591007  0.35549104  0.84152820     0.85600
C374        C  0.42283759  0.38170894  0.86713629    -0.54600
C375        C  0.40449296  0.39878141  0.88837888     0.08500
C376        C  0.36840694  0.38810292  0.88124930     0.19500
C377        C  0.38444068  0.33071170  0.86574332    -0.55400
C378        C  0.36416376  0.34706474  0.88652201     0.08600
C379        C  0.38201909  0.37793348  0.82089822    -0.54900
C380        C  0.36197376  0.39516481  0.84092089     0.09200
H381        H  0.44816716  0.38644069  0.86839093     0.13700
H382        H  0.35313138  0.40218529  0.89787914    -0.00500
H383        H  0.38495661  0.30240585  0.86574457     0.14000
H384        H  0.38128791  0.38018250  0.79258966     0.13800
C385        C  0.14645014  0.11272889  0.66194546     0.85600
C386        C  0.12363122  0.13322471  0.68282548    -0.54600
C387        C  0.10282077  0.15278237  0.66353035     0.08500
C388        C  0.10881492  0.15085935  0.62249120     0.19500
C389        C  0.12408273  0.09144223  0.63586696    -0.55400
C390        C  0.10413416  0.11038104  0.61508615     0.08600
C391        C  0.16333865  0.14108115  0.63857936    -0.54900
C392        C  0.14528137  0.16132756  0.61678454     0.09200
H393        H  0.12297063  0.13067907  0.71107125     0.13700
H394        H  0.09298213  0.16641075  0.60592335    -0.00500
H395        H  0.12374388  0.06311254  0.63440193     0.14000
H396        H  0.18870401  0.14371615  0.63845698     0.13800
N397        N  0.04434871  0.52269714  0.93654680    -0.07000
N398        N  0.06738020  0.51531616  0.91706478    -0.59100
N399        N  0.49174411  0.07666392  0.95482553    -0.06700
N400        N  0.47416377  0.10314766  0.95323574    -0.61300
N401        N  0.01844895  0.08567126  0.97194827    -0.06300
N402        N  0.01927467  0.11863010  0.98189561    -0.59100
N403        N  0.01729899  0.51404115  0.92009710    -0.06000
N404        N  0.02140193  0.50121043  0.88909486    -0.61600
C405        C  0.05272731  0.50244307  0.88768757     0.95200
C406        C  0.99120458  0.12896561  0.97031893     0.94900
N407        N  0.42018332  0.01805459  0.99331556    -0.07200
N408        N  0.39650303  0.03375426  0.50506529    -0.59700
N409        N  0.45110735  0.46835539  0.93311498    -0.05300
N410        N  0.43985493  0.45362786  0.90358765    -0.61000
N411        N  0.43934936  0.45084356  0.96020127    -0.07200
N412        N  0.41983540  0.42395036  0.94930661    -0.60000
N413        N  0.42983836  0.03360710  0.96447630    -0.05000
N414        N  0.41289072  0.05950481  0.95527663    -0.61000
Mn415      Mn  0.47305790  0.02305526  0.94195308     1.18400
C416        C  0.39199246  0.05913323  0.98038355     0.97300
C417        C  0.42016419  0.42583776  0.91369778     0.97900
N418        N  0.05707292  0.06946324  0.54375413    -0.07200
N419        N  0.07752977  0.09545719  0.55488883    -0.63600
N420        N  0.06686641  0.48554094  0.53739468    -0.06000
N421        N  0.08363707  0.45923826  0.54564984    -0.64200
N422        N  0.07665605  0.50218464  0.00914150    -0.06700
N423        N  0.10020395  0.48664438  0.99673310    -0.63800
N424        N  0.04689973  0.05043843  0.57064724    -0.05600
N425        N  0.06066271  0.06283942  0.60012038    -0.64500
Mn426      Mn  0.04994516  0.04607301  0.98945269     1.10700
C427        C  0.07925988  0.09169817  0.59045352     0.98500
C428        C  0.10457791  0.46040619  0.52052993     0.98500
N429        N  0.47699260  0.43457428  0.53190982    -0.06800
N430        N  0.47478041  0.40139135  0.52248848    -0.62100
N431        N  0.48052552  0.00730709  0.58226484    -0.06100
N432        N  0.47779304  0.02188097  0.61262483    -0.58900
N433        N  0.45293553  0.00010974  0.56642243    -0.07400
N434        N  0.43082311  0.01029283  0.58591856    -0.61700
N435        N  0.50429273  0.44280795  0.54804514    -0.06400
N436        N  0.02096360  0.41559841  0.54960416    -0.58900
Mn437      Mn  0.44645194  0.47489133  0.51408549     1.20200
Mn438      Mn  0.02413474  0.49630810  0.56065359     1.10100
Cl439      Cl  0.49842039  0.00995673  0.00153757    -0.86900
C440        C  0.50262348  0.39005150  0.53337029     0.95500
C441        C  0.44685571  0.02400493  0.61421456     0.95300
N442        N  0.29746806  0.20596497  0.02172745    -0.07000
N443        N  0.30909297  0.17567034  0.01852022    -0.59100
N444        N  0.29151903  0.27542016  0.56728782    -0.06700
N445        N  0.30483823  0.28992348  0.59560907    -0.61300
N446        N  0.27104189  0.24967375  0.57662381    -0.06300
N447        N  0.26991368  0.24652545  0.61068188    -0.59100
N448        N  0.31693500  0.23171614  0.01006747    -0.06000
N449        N  0.34238674  0.21906204  0.99872392    -0.61600
C450        C  0.33680855  0.18415877  0.00450651     0.95200
C451        C  0.29111682  0.27157060  0.62237321     0.94900
N452        N  0.26735520  0.34914888  0.49292362    -0.07200
N453        N  0.26098005  0.38159247  0.49929059    -0.59700
N454        N  0.31807320  0.30042678  0.95518209    -0.05300
N455        N  0.34590475  0.31061517  0.94189654    -0.61000
N456        N  0.29547719  0.31032781  0.93373442    -0.07200
N457        N  0.30778880  0.32760098  0.90608000    -0.60000
N458        N  0.28984455  0.33947359  0.51425434    -0.05000
N459        N  0.29945758  0.36496759  0.53556358    -0.61000
Mn460      Mn  0.30519747  0.28640678  0.51200885     1.18400
C461        C  0.28142233  0.39127431  0.52594317     0.97300
C462        C  0.33954830  0.32722220  0.91059757     0.97900
N463        N  0.20388872  0.21071206  0.56459363    -0.07200
N464        N  0.19492870  0.19289100  0.59309754    -0.63600
N465        N  0.20846930  0.17965904  0.98378854    -0.06000
N466        N  0.19994882  0.15314361  0.96310802    -0.64200
N467        N  0.23124694  0.17155499  0.00542605    -0.06700
N468        N  0.23888484  0.13947081  0.00032448    -0.63800
N469        N  0.17952999  0.21671094  0.54405265    -0.05600
N470        N  0.15344112  0.20177952  0.55883387    -0.64500
Mn471      Mn  0.25131485  0.21001752  0.54241233     1.10700
C472        C  0.16324796  0.18732586  0.59044069     0.98500
C473        C  0.21906518  0.12806605  0.97394669     0.98500
N474        N  0.22511193  0.27060746  0.92034367    -0.06800
N475        N  0.22859350  0.26899976  0.88634086    -0.62100
N476        N  0.18091904  0.28816228  0.48911747    -0.06100
N477        N  0.15615296  0.30083774  0.50224952    -0.58900
N478        N  0.20011499  0.31421403  0.47708573    -0.07400
N479        N  0.18892415  0.34448965  0.48210592    -0.61700
N480        N  0.20639425  0.24379755  0.93150096    -0.06400
N481        N  0.19768879  0.22335331  0.90514126    -0.58900
Mn482      Mn  0.24634528  0.31122383  0.95482571     1.20200
Mn483      Mn  0.19225527  0.23261410  0.98660014     1.10100
Cl484      Cl  0.24868909  0.26025274  0.49859879    -0.86900
C485        C  0.21178310  0.23903545  0.87725237     0.95500
C486        C  0.16186041  0.33591433  0.49754276     0.95300
N487        N  0.44490483  0.25149340  0.69590625    -0.07000
N488        N  0.41582429  0.23855445  0.69023110    -0.59100
N489        N  0.50976967  0.29952855  0.67697106    -0.06700
N490        N  0.02051709  0.32101165  0.65181844    -0.61300
N491        N  0.51073022  0.26687562  0.66696050    -0.06300
N492        N  0.02211879  0.26569632  0.63574246    -0.59100
N493        N  0.44488246  0.28365035  0.70756396    -0.06000
N494        N  0.41625841  0.29300225  0.71011794    -0.61600
C495        C  0.39834915  0.26453553  0.69955411     0.95200
C496        C  0.02869652  0.29942817  0.62649937     0.94900
N497        N  0.04072593  0.32885090  0.77869676    -0.07200
N498        N  0.07071480  0.33714860  0.78311742    -0.59700
N499        N  0.46106282  0.32428766  0.77747146    -0.05300
N500        N  0.43485905  0.33989453  0.78362022    -0.61000
N501        N  0.47332532  0.31307429  0.80727414    -0.07200
N502        N  0.45578552  0.32076327  0.83374861    -0.60000
N503        N  0.03079063  0.33785698  0.74717922    -0.05000
N504        N  0.05457643  0.35147115  0.72906485    -0.61000
Mn505      Mn  0.48633719  0.31291966  0.72650530     1.18400
C506        C  0.07926215  0.35104622  0.75221028     0.97300
C507        C  0.43126296  0.33757810  0.81921972     0.97900
N508        N  0.03307998  0.19393317  0.69267474    -0.07200
N509        N  0.05102438  0.18566851  0.66657279    -0.63600
N510        N  0.47636023  0.16929797  0.75391477    -0.06000
N511        N  0.45450422  0.15489069  0.77414584    -0.64200
N512        N  0.46394292  0.17981637  0.72401351    -0.06700
N513        N  0.43330522  0.17283285  0.72357042    -0.63800
N514        N  0.04514195  0.18350392  0.72287249    -0.05600
N515        N  0.07144293  0.16807740  0.71760168    -0.64500
Mn516      Mn  0.48800378  0.22240570  0.69361198     1.10700
C517        C  0.07544366  0.16931980  0.68215300     0.98500
C518        C  0.42776549  0.15700809  0.75480588     0.98500
N519        N  0.99548143  0.24134429  0.83183090    -0.06800
N520        N  0.48108413  0.24357752  0.86111908    -0.62100
N521        N  0.06162650  0.22385898  0.79256934    -0.06100
N522        N  0.08925099  0.21166941  0.79222394    -0.58900
N523        N  0.06308335  0.25603602  0.80455628    -0.07400
N524        N  0.09287670  0.26613671  0.81260689    -0.61700
N525        N  0.99628536  0.20860979  0.82237763    -0.06400
N526        N  0.48257988  0.18781515  0.84642700    -0.58900
Mn527      Mn  0.01851770  0.28532757  0.80668568     1.20200
Mn528      Mn  0.02025281  0.19511826  0.77346958     1.10100
Cl529      Cl  0.50349205  0.25408764  0.74985410    -0.86900
C530        C  0.47283012  0.21026612  0.87011326     0.95500
C531        C  0.10866072  0.23792040  0.80459240     0.95300
N532        N  0.29369626  0.43854179  0.80575152    -0.07000
N533        N  0.30620283  0.40952542  0.81809391    -0.59100
N534        N  0.27173642  0.01053578  0.84336141    -0.06700
N535        N  0.26996703  0.03174063  0.86954554    -0.61300
N536        N  0.24890467  0.98571688  0.84340411    -0.06300
N537        N  0.23037915  0.98984776  0.86957047    -0.59100
N538        N  0.31541562  0.46481498  0.80527842    -0.06000
N539        N  0.34285304  0.45407099  0.81714632    -0.61600
C540        C  0.33728481  0.41915839  0.82485823     0.95200
C541        C  0.24442677  0.01832979  0.88594429     0.94900
N542        N  0.27534055  0.08910944  0.76395726    -0.07200
N543        N  0.28723603  0.12213997  0.76327996    -0.59700
N544        N  0.32637170  0.53056830  0.75143722    -0.05300
N545        N  0.35647265  0.52725502  0.74795576    -0.61000
N546        N  0.31387370  0.54468984  0.72295778    -0.07200
N547        N  0.33528004  0.55136441  0.69974860    -0.60000
N548        N  0.28455815  0.07399239  0.79364320    -0.05000
N549        N  0.29971314  0.09733784  0.81390205    -0.61000
Mn550      Mn  0.29988737  0.01993146  0.79826919     1.18400
C551        C  0.30341223  0.12682192  0.79426202     0.97300
C552        C  0.36154383  0.54056492  0.71560607     0.97900
N553        N  0.19316241  0.96454573  0.79194519    -0.07200
N554        N  0.17218160  0.95810088  0.81584099    -0.63600
N555        N  0.21975592  0.43374717  0.72215152    -0.06000
N556        N  0.20290824  0.40824560  0.70607841    -0.64200
N557        N  0.23430302  0.42084822  0.75012707    -0.06700
N558        N  0.22743020  0.38672241  0.75248994    -0.63800
N559        N  0.18007374  0.97807211  0.76348243    -0.05600
N560        N  0.14996494  0.98046074  0.76746103    -0.64500
Mn561      Mn  0.24254267  0.45161038  0.79769290     1.10700
C562        C  0.14540939  0.96755358  0.80014226     0.98500
C563        C  0.20636100  0.37926165  0.72612544     0.98500
N564        N  0.25788343  0.52271865  0.67089639    -0.06800
N565        N  0.27562055  0.51964363  0.64379405    -0.62100
N566        N  0.19131662  0.04445084  0.70757209    -0.06100
N567        N  0.16440889  0.05492109  0.69351816    -0.58900
N568        N  0.21320354  0.07071878  0.70715590    -0.07400
N569        N  0.20109822  0.09911482  0.69256504    -0.61700
N570        N  0.23530134  0.49745238  0.67115464    -0.06400
N571        N  0.23669390  0.47694007  0.64425887    -0.58900
Mn572      Mn  0.26492179  0.05787870  0.71622174     1.20200
Mn573      Mn  0.20604574  0.48848353  0.71601122     1.10100
Cl574      Cl  0.25316344  0.00467747  0.75699098    -0.86900
C575        C  0.26167165  0.49121452  0.62728114     0.95500
C576        C  0.17005355  0.08965508  0.68463569     0.95300
C577        C  0.35968732  0.12565145  0.80988495    -0.13200
C578        C  0.33550823  0.14464864  0.79459176     0.03800
C579        C  0.34375477  0.17251378  0.77133632    -0.08400
C580        C  0.37429815  0.17683131  0.75931239    -0.09200
C581        C  0.39669049  0.15347289  0.77006577    -0.03700
C582        C  0.38961603  0.12877279  0.79681923     0.03100
N583        N  0.41098808  0.10349440  0.80777156     0.65600
H584        H  0.35471315  0.10481736  0.82873410     0.14500
H585        H  0.38023982  0.19776776  0.74112744     0.14200
N586        N  0.32155646  0.19658012  0.75980856     0.73300
O587        O  0.42407257  0.10541846  0.83783288    -0.40200
O588        O  0.41048415  0.07512756  0.79150538    -0.40100
O589        O  0.32322822  0.22673270  0.77277390    -0.40800
O590        O  0.30541237  0.19087630  0.73198734    -0.40900
C591        C  0.13375458  0.35687963  0.77232127    -0.13200
C592        C  0.11239445  0.35395632  0.74390868     0.03800
C593        C  0.12328647  0.34857484  0.71047305    -0.08400
C594        C  0.15558011  0.35100832  0.70546556    -0.09200
C595        C  0.17710680  0.35805209  0.73369510    -0.03700
C596        C  0.16564225  0.35779635  0.76804333     0.03100
N597        N  0.18543012  0.36168853  0.79903985     0.65600
H598        H  0.12571247  0.35898371  0.79852815     0.14500
H599        H  0.16379929  0.35051583  0.67906031     0.14200
N600        N  0.10196981  0.34088872  0.68161474     0.73300
O601        O  0.19348666  0.39211248  0.80967481    -0.40200
O602        O  0.18473513  0.33690592  0.82131429    -0.40100
O603        O  0.08894743  0.36560875  0.66616267    -0.40800
O604        O  0.09093246  0.30966174  0.67710095    -0.40900
C605        C  0.25487933  0.47333893  0.56607341    -0.13200
C606        C  0.27343275  0.47434109  0.59702072     0.03800
C607        C  0.29805843  0.45229193  0.60112315    -0.08400
C608        C  0.30188474  0.42749945  0.57575600    -0.09200
C609        C  0.28112425  0.42367468  0.54647420    -0.03700
C610        C  0.25867047  0.44848191  0.54058893     0.03100
N611        N  0.23852384  0.44799019  0.50995986     0.65600
H612        H  0.23601530  0.49031339  0.56273714     0.14500
H613        H  0.31977731  0.40950025  0.58051918     0.14200
N614        N  0.31707559  0.45177017  0.63261338     0.73300
O615        O  0.21197324  0.43130884  0.51067089    -0.40200
O616        O  0.24359374  0.47107199  0.48640382    -0.40100
O617        O  0.31020892  0.42897923  0.65598223    -0.40800
O618        O  0.34441207  0.46665164  0.63272532    -0.40900
C619        C  0.20185583  0.08766690  0.92589763    -0.13200
C620        C  0.22085978  0.09438188  0.95611294     0.03800
C621        C  0.24313663  0.07037109  0.96639896    -0.08400
C622        C  0.24836294  0.04299371  0.94438952    -0.09200
C623        C  0.23097382  0.03808057  0.91301161    -0.03700
C624        C  0.20667853  0.05969029  0.90441291     0.03100
N625        N  0.18892242  0.05596406  0.87215587     0.65600
H626        H  0.18441826  0.10527562  0.91771738     0.14500
H627        H  0.26734463  0.02680824  0.95082817     0.14200
N628        N  0.26142544  0.07379314  0.99835419     0.73300
O629        O  0.16164984  0.04093834  0.87225799    -0.40200
O630        O  0.19713141  0.07469606  0.84605332    -0.40100
O631        O  0.25281456  0.05565779  0.02468065    -0.40800
O632        O  0.28932087  0.08695666  0.99768127    -0.40900
C633        C  0.16518479  0.26008028  0.80468307    -0.13200
C634        C  0.14205340  0.23324591  0.81203737     0.03800
C635        C  0.15173182  0.20066529  0.82511373    -0.08400
C636        C  0.18214470  0.19896837  0.83874088    -0.09200
C637        C  0.20179701  0.22972097  0.84120842    -0.03700
C638        C  0.19623961  0.25705352  0.81708903     0.03100
N639        N  0.22170809  0.27970339  0.80388501     0.65600
H640        H  0.15907932  0.28274180  0.78897430     0.14500
H641        H  0.18781197  0.17578831  0.85381560     0.14200
N642        N  0.13055918  0.17004812  0.82798728     0.73300
O643        O  0.21834897  0.29523618  0.77469102    -0.40200
O644        O  0.24897488  0.27874869  0.81736905    -0.40100
O645        O  0.13108827  0.14649996  0.80552311    -0.40800
O646        O  0.11879000  0.16223139  0.85707808    -0.40900
C647        C  0.32011506  0.29496624  0.67389585    -0.13200
C648        C  0.30883841  0.26581978  0.65467280     0.03800
C649        C  0.32208719  0.23341002  0.66022671    -0.08400
C650        C  0.34975613  0.23256801  0.67993210    -0.09200
C651        C  0.36439692  0.26342309  0.69370729    -0.03700
C652        C  0.34774704  0.29385520  0.69414570     0.03100
N653        N  0.35952187  0.32464383  0.71232174     0.65600
H654        H  0.30935982  0.31940093  0.67045667     0.14500
H655        H  0.36149533  0.20867869  0.68060747     0.14200
N656        N  0.31149422  0.20284456  0.64088168     0.73300
O657        O  0.37230584  0.35014777  0.69529081    -0.40200
O658        O  0.34894311  0.33010441  0.74180408    -0.40100
O659        O  0.32458945  0.19677112  0.61298018    -0.40800
O660        O  0.29527762  0.17831502  0.65573796    -0.40900
C661        C  0.38757173  0.11069402  0.01507415    -0.13200
C662        C  0.37664868  0.09065813  0.98641080     0.03800
C663        C  0.35696520  0.10487657  0.96048170    -0.08400
C664        C  0.34655196  0.13795342  0.96507917    -0.09200
C665        C  0.35617881  0.15711895  0.99482667    -0.03700
C666        C  0.37712600  0.14366368  0.01975462     0.03100
N667        N  0.38706002  0.16259757  0.05049031     0.65600
H668        H  0.40495781  0.10109135  0.03322638     0.14500
H669        H  0.32969364  0.14790619  0.94637159     0.14200
N670        N  0.34684232  0.08577813  0.92988542     0.73300
O671        O  0.37139269  0.15809238  0.07762318    -0.40200
O672        O  0.41455378  0.17696887  0.05292019    -0.40100
O673        O  0.32021901  0.06915077  0.42878600    -0.40800
O674        O  0.36074270  0.09235006  0.90180981    -0.40900
C675        C  0.15220342  0.38319974  0.53635432    -0.13200
C676        C  0.14226705  0.36295335  0.50739401     0.03800
C677        C  0.12051430  0.37536222  0.48273795    -0.08400
C678        C  0.11046512  0.40883674  0.48595315    -0.09200
C679        C  0.12099794  0.42951803  0.51437808    -0.03700
C680        C  0.14094154  0.41600147  0.54056893     0.03100
N681        N  0.14991741  0.43524512  0.57144328     0.65600
H682        H  0.16941397  0.37402083  0.55502890     0.14500
H683        H  0.09350167  0.41809835  0.46704104     0.14200
N684        N  0.10854050  0.35422680  0.45424246     0.73300
O685        O  0.13532732  0.42834866  0.59902745    -0.40200
O686        O  0.17601592  0.45295218  0.57327382    -0.40100
O687        O  0.08136011  0.33907749  0.45539475    -0.40800
O688        O  0.12233120  0.35616051  0.42573046    -0.40900
C689        C  0.09378960  0.99052389  0.80524336    -0.13200
C690        C  0.11607486  0.96815772  0.81823679     0.03800
C691        C  0.11194267  0.45096587  0.85072891    -0.08400
C692        C  0.08881641  0.46064060  0.87198375    -0.09200
C693        C  0.06935024  0.48648373  0.86081973    -0.03700
C694        C  0.07021972  0.99978360  0.82646688     0.03100
N695        N  0.04956894  0.02503373  0.81365615     0.65600
H696        H  0.09609179  0.00308592  0.77984241     0.14500
H697        H  0.08721925  0.44937912  0.89804887     0.14200
N698        N  0.13158514  0.42466008  0.86338883     0.73300
O699        O  0.05833269  0.05722348  0.81574132    -0.40200
O700        O  0.02787515  0.51585381  0.79191769    -0.40100
O701        O  0.15134243  0.93182961  0.88825471    -0.40800
O702        O  0.12326229  0.39297293  0.85716576    -0.40900
C703        C  0.39441567  0.56771678  0.67102504    -0.13200
C704        C  0.39107484  0.54245821  0.69790216     0.03800
C705        C  0.41203921  0.51594638  0.70133603    -0.08400
C706        C  0.43243034  0.01171583  0.67464218    -0.09200
C707        C  0.43216403  0.03426392  0.64535327    -0.03700
C708        C  0.41478943  0.06369089  0.64490292     0.03100
N709        N  0.41421911  0.08721606  0.61554996     0.65600
H710        H  0.37917521  0.58885066  0.66882016     0.14500
H711        H  0.44645852  0.98951074  0.67526238     0.14200
N712        N  0.41035385  0.49043482  0.72915860     0.73300
O713        O  0.39064462  0.58142337  0.59236408    -0.40200
O714        O  0.42953568  0.11671839  0.61756260    -0.40100
O715        O  0.39598212  0.46084121  0.72377797    -0.40800
O716        O  0.42897968  0.99199585  0.75434572    -0.40900
C717        C  0.49593946  0.30586254  0.57387333    -0.13200
C718        C  0.02613857  0.30966232  0.58964476     0.03800
C719        C  0.05034780  0.32835562  0.57176783    -0.08400
C720        C  0.04244031  0.34939093  0.54304419    -0.09200
C721        C  0.51077126  0.35359482  0.53470377    -0.03700
C722        C  0.48818460  0.32742672  0.54560283     0.03100
N723        N  0.45635875  0.32656261  0.53294630     0.65600
H724        H  0.47753931  0.28949239  0.58608717     0.14500
H725        H  0.06043268  0.36748206  0.53229314     0.14400
N726        N  0.08232114  0.32863472  0.58368360     0.73300
O727        O  0.44685538  0.30442410  0.51019198    -0.40200
O728        O  0.43657402  0.34029097  0.55066535    -0.40100
O729        O  0.09939216  0.30765052  0.57021362    -0.40800
O730        O  0.09518779  0.35602657  0.59744009    -0.40900
C731        C  0.00021661  0.20859784  0.92663143    -0.13200
C732        C  0.47210686  0.20143001  0.90711302     0.03800
C733        C  0.44622230  0.18423502  0.92317664    -0.08400
C734        C  0.45104692  0.16780023  0.95570679    -0.09200
C735        C  0.98205207  0.16507447  0.96850608    -0.03700
C736        C  0.00497280  0.19119117  0.95841369     0.03100
N737        N  0.03511492  0.19526864  0.97577435     0.65600
H738        H  0.01933522  0.22450702  0.91576290     0.14500
H739        H  0.43243960  0.15055274  0.96570014     0.14200
N740        N  0.41599405  0.18078464  0.90600210     0.73300
O741        O  0.05756044  0.18079508  0.96344210    -0.40200
O742        O  0.04108438  0.22085880  0.99582836    -0.40100
O743        O  0.40769743  0.15331651  0.88935655    -0.40800
O744        O  0.39540563  0.20024023  0.91485523    -0.40900
C745        C  0.40597282  0.85548631  0.34173643     0.85600
C746        C  0.42288617  0.88171006  0.36734985    -0.54600
C747        C  0.40452797  0.89878867  0.38857470     0.08500
C748        C  0.36844429  0.88811497  0.38141871     0.19500
C749        C  0.38448777  0.83071762  0.36594379    -0.55400
C750        C  0.36419802  0.84708057  0.38669811     0.08600
C751        C  0.38208708  0.87792884  0.32108430    -0.54900
C752        C  0.36202563  0.89516703  0.34108598     0.09200
H753        H  0.44821604  0.88643807  0.36862391     0.13700
H754        H  0.35316036  0.90220053  0.39803568    -0.00500
H755        H  0.38500189  0.80241133  0.36595686     0.14000
H756        H  0.38136780  0.88016620  0.29277541     0.13800
C757        C  0.14641257  0.61266282  0.16182875     0.85600
C758        C  0.12359716  0.63312457  0.18274012    -0.54600
C759        C  0.10278702  0.65270404  0.16347667     0.08500
C760        C  0.10876743  0.65081815  0.12242680     0.19500
C761        C  0.12405281  0.59139427  0.13572976    -0.55400
C762        C  0.10409515  0.61034207  0.11497163     0.08600
C763        C  0.16329379  0.64104046  0.13849803    -0.54900
C764        C  0.14523319  0.66130172  0.11673036     0.09200
H765        H  0.12295191  0.63055762  0.21098529     0.13700
H766        H  0.09293224  0.66638582  0.10587959    -0.00500
H767        H  0.12372906  0.56306823  0.13423129     0.14000
H768        H  0.18865926  0.64368255  0.13837876     0.13800
N769        N  0.04432702  0.02273587  0.43672230    -0.07000
N770        N  0.06735838  0.01536992  0.41723278    -0.59100
N771        N  0.49175839  0.57663238  0.45464963    -0.06700
N772        N  0.47414345  0.60308717  0.45312857    -0.61300
N773        N  0.01845485  0.58563604  0.47179463    -0.06300
N774        N  0.01923454  0.61856491  0.48182432    -0.59100
N775        N  0.01727744  0.01408337  0.42027279    -0.06000
N776        N  0.02138178  0.00126650  0.38926255    -0.61600
C777        C  0.05270869  0.00250610  0.38784891     0.95200
C778        C  0.99114917  0.62887815  0.47027669     0.94900
N779        N  0.42024620  0.51803823  0.49316246    -0.07200
N780        N  0.39665745  0.53385192  0.00500186    -0.59700
N781        N  0.45110162  0.96837659  0.43333084    -0.05300
N782        N  0.43987048  0.95363920  0.40380123    -0.61000
N783        N  0.43933520  0.95086826  0.46041667    -0.07200
N784        N  0.41983428  0.92396602  0.44951434    -0.60000
N785        N  0.42987876  0.53358120  0.46430813    -0.05000
N786        N  0.41300247  0.55956177  0.45518885    -0.61000
Mn787      Mn  0.47308327  0.52302319  0.44176212     1.18400
C788        C  0.39217704  0.55925567  0.48036321     0.97300
C789        C  0.42018308  0.92584579  0.41390430     0.97900
N790        N  0.05708033  0.56941081  0.04359668    -0.07200
N791        N  0.07751759  0.59541800  0.05474862    -0.63600
N792        N  0.06680608  0.98554545  0.03759136    -0.06000
N793        N  0.08354060  0.95920781  0.04583545    -0.64200
N794        N  0.07661450  0.00219710  0.50933541    -0.06700
N795        N  0.10013590  0.98661608  0.49691837    -0.63800
N796        N  0.04690481  0.55037077  0.07048059    -0.05600
N797        N  0.06064775  0.56277784  0.09996274    -0.64500
Mn798      Mn  0.04997123  0.54605867  0.48928181     1.10700
C799        C  0.07923232  0.59165599  0.09031524     0.98500
C800        C  0.10446473  0.96033312  0.02069952     0.98500
N801        N  0.47693336  0.93465283  0.03215866    -0.06800
N802        N  0.47472449  0.90147365  0.02272703    -0.62100
N803        N  0.48054104  0.50715115  0.08209148    -0.06100
N804        N  0.47777388  0.52165808  0.11247902    -0.58900
N805        N  0.45296549  0.49997023  0.06621297    -0.07400
N806        N  0.43082885  0.51011128  0.08569129    -0.61700
N807        N  0.50423361  0.94288529  0.04829134    -0.06400
N808        N  0.02087775  0.91567220  0.04984908    -0.58900
Mn809      Mn  0.44640383  0.97496031  0.01430234     1.20200
Mn810      Mn  0.02409145  0.99638272  0.06084816     1.10100
Cl811      Cl  0.49845559  0.50990960  0.50134471    -0.86900
C812        C  0.50256835  0.89013516  0.03360368     0.95500
C813        C  0.44682770  0.52374548  0.11403718     0.95300
N814        N  0.29747446  0.70595563  0.52175131    -0.07000
N815        N  0.30909702  0.67567027  0.51845106    -0.59100
N816        N  0.29149177  0.77540040  0.06739158    -0.06700
N817        N  0.30483589  0.78988770  0.09570667    -0.61300
N818        N  0.27104786  0.74962057  0.07672809    -0.06300
N819        N  0.26997864  0.74642481  0.11079019    -0.59100
N820        N  0.31693581  0.73173586  0.51013708    -0.06000
N821        N  0.34238310  0.71911382  0.49874307    -0.61600
C822        C  0.33680680  0.68419620  0.50443077     0.95200
C823        C  0.29117070  0.77148960  0.12247406     0.94900
N824        N  0.26728298  0.84914940  0.99303771    -0.07200
N825        N  0.26088160  0.88158327  0.99941495    -0.59700
N826        N  0.31806345  0.80046535  0.45532292    -0.05300
N827        N  0.34590402  0.81064530  0.44205816    -0.61000
N828        N  0.29547941  0.81036843  0.43386157    -0.07200
N829        N  0.30780861  0.82763881  0.40621561    -0.60000
N830        N  0.28976313  0.83947830  0.01438634    -0.05000
N831        N  0.29934383  0.86496719  0.03571556    -0.61000
Mn832      Mn  0.30516089  0.78642215  0.01212860     1.18400
C833        C  0.28129971  0.89126520  0.02609026     0.97300
C834        C  0.33956600  0.82725208  0.41075639     0.97900
N835        N  0.20386742  0.71069955  0.06461347    -0.07200
N836        N  0.19488713  0.69288791  0.09311234    -0.63600
N837        N  0.20847838  0.67963807  0.48379835    -0.06000
N838        N  0.19998128  0.65313402  0.46308898    -0.64200
N839        N  0.23125382  0.67153068  0.50543766    -0.06700
N840        N  0.23891049  0.63945680  0.50030838    -0.63800
N841        N  0.17951824  0.71669820  0.04405561    -0.05600
N842        N  0.15341874  0.70177189  0.05881395    -0.64500
Mn843      Mn  0.25131283  0.70998864  0.04246706     1.10700
C844        C  0.16320698  0.68732433  0.09042704     0.98500
C845        C  0.21910754  0.62805768  0.47391148     0.98500
N846        N  0.22513824  0.77060488  0.42040622    -0.06800
N847        N  0.22865667  0.76896858  0.38641128    -0.62100
N848        N  0.18087700  0.78812935  0.98912363    -0.06100
N849        N  0.15608905  0.80078601  0.00222840    -0.58900
N850        N  0.20006280  0.81419418  0.97710062    -0.07400
N851        N  0.18884135  0.84446004  0.98209584    -0.61700
N852        N  0.20642632  0.74378970  0.43156039    -0.06400
N853        N  0.19776480  0.72331373  0.40521556    -0.58900
Mn854      Mn  0.24632736  0.81123554  0.45490876     1.20200
Mn855      Mn  0.19225534  0.73260202  0.48663011     1.10100
Cl856      Cl  0.24867166  0.76024866  0.99867738    -0.86900
C857        C  0.21187474  0.73898030  0.37733188     0.95500
C858        C  0.16176667  0.83586554  0.99750623     0.95300
N859        N  0.44502105  0.75152995  0.19605401    -0.07000
N860        N  0.41594668  0.73859923  0.19032684    -0.59100
N861        N  0.50987651  0.79958991  0.17719575    -0.06700
N862        N  0.02059510  0.82107705  0.15205290    -0.61300
N863        N  0.51085231  0.76695089  0.16715218    -0.06300
N864        N  0.02221228  0.76578076  0.13592960    -0.59100
N865        N  0.44498747  0.78366751  0.20775803    -0.06000
N866        N  0.41636008  0.79301475  0.21029331    -0.61600
C867        C  0.39846213  0.76456508  0.19966397     0.95200
C868        C  0.02876829  0.79952033  0.12670752     0.94900
N869        N  0.04081916  0.82879241  0.27893854    -0.07200
N870        N  0.07081795  0.83703612  0.28334817    -0.59700
N871        N  0.46114157  0.82424973  0.27770284    -0.05300
N872        N  0.43494870  0.83987907  0.28384786    -0.61000
N873        N  0.47338740  0.81300992  0.30750323    -0.07200
N874        N  0.45584488  0.82071015  0.33397562    -0.60000
N875        N  0.03088792  0.83782110  0.24742553    -0.05000
N876        N  0.05468304  0.85139483  0.22930257    -0.61000
Mn877      Mn  0.48643213  0.81292084  0.22673788     1.18400
C878        C  0.07936967  0.85092063  0.25243846     0.97300
C879        C  0.43133681  0.83755568  0.31944373     0.97900
N880        N  0.03314115  0.69394283  0.19274223    -0.07200
N881        N  0.05104600  0.68566583  0.16661068    -0.63600
N882        N  0.47645469  0.66926408  0.25394229    -0.06000
N883        N  0.45458420  0.65481239  0.27413051    -0.64200
N884        N  0.46405653  0.67981457  0.22404325    -0.06700
N885        N  0.43342238  0.67280782  0.22355287    -0.63800
N886        N  0.04521134  0.68347555  0.22292151    -0.05600
N887        N  0.07148234  0.66800665  0.21760620    -0.64500
Mn888      Mn  0.48811484  0.72245002  0.19372373     1.10700
C889        C  0.07545230  0.66926736  0.18214956     0.98500
C890        C  0.42786163  0.65693519  0.25475845     0.98500
N891        N  0.99555031  0.74123360  0.33195440    -0.06800
N892        N  0.48112594  0.74341810  0.36122427    -0.62100
N893        N  0.06171324  0.72379924  0.29267850    -0.06100
N894        N  0.08934666  0.71162878  0.29232723    -0.58900
N895        N  0.06315446  0.75595773  0.30471531    -0.07400
N896        N  0.09294099  0.76606259  0.31279505    -0.61700
N897        N  0.99636186  0.70850783  0.32247246    -0.06400
N898        N  0.48265189  0.68767316  0.34648142    -0.58900
Mn899      Mn  0.01859213  0.78524828  0.30687774     1.20200
Mn900      Mn  0.02033385  0.69505816  0.27354899     1.10100
Cl901      Cl  0.50358600  0.75406179  0.25001203    -0.86900
C902        C  0.47287550  0.71009698  0.37017731     0.95500
C903        C  0.10874103  0.73787247  0.30474596     0.95300
N904        N  0.29372589  0.93852787  0.30589614    -0.07000
N905        N  0.30624077  0.90951454  0.31824185    -0.59100
N906        N  0.27171346  0.51055047  0.34321357    -0.06700
N907        N  0.26997237  0.53172646  0.36942932    -0.61300
N908        N  0.24887976  0.48573303  0.34325630    -0.06300
N909        N  0.23038127  0.48984004  0.36945676    -0.59100
N910        N  0.31544168  0.96480376  0.30542423    -0.06000
N911        N  0.34288288  0.95406527  0.31729112    -0.61600
C912        C  0.33732549  0.91915102  0.32500408     0.95200
C913        C  0.24444687  0.51830530  0.38585142     0.94900
N914        N  0.27531251  0.58911842  0.26377967    -0.07200
N915        N  0.28725678  0.62213164  0.26308886    -0.59700
N916        N  0.32637702  0.03053947  0.25159862    -0.05300
N917        N  0.35646865  0.02717106  0.24816921    -0.61000
N918        N  0.31392793  0.04469435  0.22310669    -0.07200
N919        N  0.33537992  0.05135162  0.19993346    -0.60000
N920        N  0.28449303  0.57400469  0.29348210    -0.05000
N921        N  0.29964057  0.59734788  0.31374785    -0.61000
Mn922      Mn  0.29986698  0.51995692  0.29811212     1.18400
C923        C  0.30341438  0.62680665  0.29408356     0.97300
C924        C  0.36159928  0.04048188  0.21584219     0.97900
N925        N  0.19315854  0.46453910  0.29175476    -0.07200
N926        N  0.17217435  0.45810037  0.31564550    -0.63600
N927        N  0.21972794  0.93375693  0.22231244    -0.06000
N928        N  0.20287914  0.90823711  0.20626247    -0.64200
N929        N  0.23431910  0.92086875  0.25026456    -0.06700
N930        N  0.22748852  0.88673711  0.25262843    -0.63800
N931        N  0.18007647  0.47804646  0.26327929    -0.05600
N932        N  0.14996644  0.48043415  0.26724622    -0.64500
Mn933      Mn  0.24256387  0.95161359  0.29783074     1.10700
C934        C  0.14540621  0.46754048  0.29993169     0.98500
C935        C  0.20640002  0.87925112  0.22629000     0.98500
N936        N  0.25787645  0.02274339  0.17104238    -0.06800
N937        N  0.27557905  0.01967729  0.14390967    -0.62100
N938        N  0.19131296  0.54440313  0.20738961    -0.06100
N939        N  0.16439736  0.55485763  0.19334798    -0.58900
N940        N  0.21318586  0.57068342  0.20698597    -0.07400
N941        N  0.20106663  0.59907664  0.19241371    -0.61700
N942        N  0.23527929  0.99749247  0.17130837    -0.06400
N943        N  0.23662632  0.97700348  0.14438812    -0.58900
Mn944      Mn  0.26489869  0.55787139  0.21605589     1.20200
Mn945      Mn  0.20603623  0.98851882  0.21617410     1.10100
Cl946      Cl  0.25315501  0.50467734  0.25682715    -0.86900
C947        C  0.26159023  0.99127452  0.12738593     0.95500
C948        C  0.17002690  0.58959559  0.18448614     0.95300
C949        C  0.35968996  0.62535486  0.30958206    -0.13200
C950        C  0.33555821  0.64450320  0.29440754     0.03800
C951        C  0.34386181  0.67247728  0.27130257    -0.08400
C952        C  0.37441830  0.67680471  0.25931552    -0.09200
C953        C  0.39676933  0.65335838  0.26996587    -0.03700
C954        C  0.38963666  0.62852199  0.29657526     0.03100
N955        N  0.41099388  0.60321056  0.30747245     0.65600
H956        H  0.35467808  0.60442378  0.32832369     0.14500
H957        H  0.38041266  0.69784449  0.24125446     0.14200
N958        N  0.32173420  0.69669978  0.25997174     0.73300
O959        O  0.42407595  0.60507597  0.33753819    -0.40200
O960        O  0.41046214  0.57486614  0.29116409    -0.40100
O961        O  0.32353768  0.72678348  0.27310140    -0.40800
O962        O  0.30549086  0.69119206  0.23218383    -0.40900
C963        C  0.13385387  0.85689609  0.27252832    -0.13200
C964        C  0.11249432  0.85381091  0.24412990     0.03800
C965        C  0.12338445  0.84823466  0.21073255    -0.08400
C966        C  0.15567766  0.85076379  0.20570264    -0.09200
C967        C  0.17719592  0.85797130  0.23390289    -0.03700
C968        C  0.16573812  0.85779539  0.26824772     0.03100
N969        N  0.18553671  0.86170954  0.29923066     0.65600
H970        H  0.12581156  0.85910055  0.29872155     0.14500
H971        H  0.16389549  0.85016064  0.17930570     0.14200
N972        N  0.10206786  0.84016522  0.18196158     0.73300
O973        O  0.19352095  0.89213599  0.30990408    -0.40200
O974        O  0.18493404  0.83688857  0.32146072    -0.40100
O975        O  0.08900228  0.86467768  0.16620274    -0.40800
O976        O  0.09106149  0.80886813  0.17783694    -0.40900
C977        C  0.25474819  0.97334441  0.06619572    -0.13200
C978        C  0.27332755  0.97438377  0.09712459     0.03800
C979        C  0.29795770  0.95234277  0.10122744    -0.08400
C980        C  0.30176307  0.92751750  0.07588627    -0.09200
C981        C  0.28099320  0.92367146  0.04661409    -0.03700
C982        C  0.25853646  0.94847472  0.04072198     0.03100
N983        N  0.23840791  0.94798947  0.01007911     0.65600
H984        H  0.23587891  0.99031318  0.06285891     0.14500
H985        H  0.31965990  0.90952346  0.08065398     0.14200
N986        N  0.31700918  0.95187478  0.13269524     0.73300
O987        O  0.21180109  0.93143756  0.01081268    -0.40200
O988        O  0.24357640  0.97098539  0.98646494    -0.40100
O989        O  0.31020282  0.92908886  0.15608839    -0.40800
O990        O  0.34431802  0.96682718  0.13277376    -0.40900
C991        C  0.20185721  0.58759226  0.42590008    -0.13200
C992        C  0.22091511  0.59436883  0.45606629     0.03800
C993        C  0.24323467  0.57039281  0.46631530    -0.08400
C994        C  0.24846452  0.54301720  0.44429794    -0.09200
C995        C  0.23102000  0.53804652  0.41296108    -0.03700
C996        C  0.20666175  0.55959055  0.40442956     0.03100
N997        N  0.18878636  0.55574244  0.37226247     0.65600
H998        H  0.18437175  0.60515701  0.41775924     0.14500
H999        H  0.26747215  0.52685934  0.45070931     0.14200
N1000       N  0.26154033  0.57383140  0.49825784     0.73300
O1001       O  0.16151655  0.54072356  0.37253331    -0.40200
O1002       O  0.19692460  0.57432185  0.34603305    -0.40100
O1003       O  0.25292080  0.55574842  0.52461411    -0.40800
O1004       O  0.28944051  0.58697439  0.49756439    -0.40900
C1005       C  0.16527997  0.76000058  0.30479323    -0.13200
C1006       C  0.14213026  0.73320196  0.31221789     0.03800
C1007       C  0.15178233  0.70063123  0.32534906    -0.08400
C1008       C  0.18222607  0.69889250  0.33886665    -0.09200
C1009       C  0.20190418  0.72963054  0.34129243    -0.03700
C1010       C  0.19634297  0.75695275  0.31716594     0.03100
N1011       N  0.22181240  0.77960742  0.30397059     0.65600
H1012       H  0.15918038  0.78266131  0.28907518     0.14500
H1013       H  0.18788771  0.67572265  0.35396346     0.14200
N1014       N  0.13054184  0.67009786  0.32846247     0.73300
O1015       O  0.21844897  0.79517496  0.27479611    -0.40200
O1016       O  0.24908102  0.77863799  0.31744716    -0.40100
O1017       O  0.13102807  0.64632730  0.30622627    -0.40800
O1018       O  0.11871716  0.66260184  0.35758876    -0.40900
C1019       C  0.32020974  0.79494739  0.17394493    -0.13200
C1020       C  0.30893287  0.76577459  0.15475586     0.03800
C1021       C  0.32222122  0.73338847  0.16030716    -0.08400
C1022       C  0.34989049  0.73258145  0.18001542    -0.09200
C1023       C  0.36451650  0.76345264  0.19377084    -0.03700
C1024       C  0.34786041  0.79388195  0.19417031     0.03100
N1025       N  0.35965826  0.82471904  0.21225443     0.65600
H1026       H  0.30944019  0.81937548  0.17048559     0.14500
H1027       H  0.36164219  0.70869547  0.18071395     0.14200
N1028       N  0.31165934  0.70280950  0.14096809     0.73300
O1029       O  0.37250582  0.85013884  0.19515971    -0.40200
O1030       O  0.34906854  0.83030460  0.24170153    -0.40100
O1031       O  0.32481711  0.69670554  0.11311376    -0.40800
O1032       O  0.29543776  0.67828460  0.15582517    -0.40900
C1033       C  0.38785238  0.61096620  0.51491609    -0.13200
C1034       C  0.37683511  0.59078785  0.48637807     0.03800
C1035       C  0.35700694  0.60485765  0.46050172    -0.08400
C1036       C  0.34648464  0.63788529  0.46507934    -0.09200
C1037       C  0.35620667  0.65719135  0.49470810    -0.03700
C1038       C  0.37735686  0.64392927  0.51952597     0.03100
N1039       N  0.38748953  0.66308150  0.55006290     0.65600
H1040       H  0.40535347  0.60150073  0.53301302     0.14500
H1041       H  0.32950598  0.64770740  0.44643771     0.14200
N1042       N  0.34689697  0.58568019  0.42994807     0.73300
O1043       O  0.37226987  0.65839790  0.57750395    -0.40200
O1044       O  0.41483077  0.67792305  0.55195237    -0.40100
O1045       O  0.32031705  0.56896945  0.92891041    -0.40800
O1046       O  0.36077997  0.59221323  0.40185429    -0.40900
C1047       C  0.15209685  0.88309139  0.03639870    -0.13200
C1048       C  0.14216981  0.86289207  0.00740156     0.03800
C1049       C  0.12038916  0.87532095  0.98278813    -0.08400
C1050       C  0.11031403  0.90877541  0.98607621    -0.09200
C1051       C  0.12084608  0.92941533  0.01453091    -0.03700
C1052       C  0.14080361  0.91586672  0.04068991     0.03100
N1053       N  0.14976846  0.93505277  0.07160337     0.65600
H1054       H  0.16931910  0.87389324  0.05505006     0.14500
H1055       H  0.09334153  0.91805916  0.96718587     0.14200
N1056       N  0.10841207  0.85422905  0.95426280     0.73300
O1057       O  0.13510559  0.92817608  0.09914174    -0.40200
O1058       O  0.17591192  0.95266224  0.07352148    -0.40100
O1059       O  0.08120453  0.83914194  0.95536360    -0.40800
O1060       O  0.12223612  0.85615594  0.92577230    -0.40900
C1061       C  0.09385362  0.49062924  0.30507996    -0.13200
C1062       C  0.11607787  0.46816664  0.31802373     0.03800
C1063       C  0.11197565  0.95104987  0.35094445    -0.08400
C1064       C  0.08885228  0.96073910  0.37219641    -0.09200
C1065       C  0.06934037  0.98652554  0.36099304    -0.03700
C1066       C  0.07031232  0.49991341  0.32632558     0.03100
N1067       N  0.04978479  0.52533074  0.31361172     0.65600
H1068       H  0.09620130  0.50326281  0.27971853     0.14500
H1069       H  0.08727716  0.94951662  0.39827967     0.14200
N1070       N  0.13161045  0.92473956  0.36360780     0.73300
O1071       O  0.05865235  0.55747662  0.31591356    -0.40200
O1072       O  0.02772870  0.01550455  0.29203934    -0.40100
O1073       O  0.15133500  0.43175431  0.38795424    -0.40800
O1074       O  0.12330337  0.89305873  0.35733772    -0.40900
C1075       C  0.39490828  0.06796075  0.17181538    -0.13200
C1076       C  0.39116923  0.04229598  0.19825303     0.03800
C1077       C  0.41174959  0.01538534  0.20129902    -0.08400
C1078       C  0.43272407  0.51216417  0.17470273    -0.09200
C1079       C  0.43208498  0.53421803  0.14505529    -0.03700
C1080       C  0.41428497  0.56330781  0.14414947     0.03100
N1081       N  0.41327771  0.58628464  0.11439040     0.65600
H1082       H  0.37993525  0.08935655  0.16993087     0.14500
H1083       H  0.44706145  0.49021861  0.17565112     0.14200
N1084       N  0.40961540  0.98941234  0.22867568     0.73300
O1085       O  0.39176134  0.08312278  0.09336674    -0.40200
O1086       O  0.42833369  0.61597506  0.11575964    -0.40100
O1087       O  0.39477761  0.96017749  0.22277871    -0.40800
O1088       O  0.42969394  0.49372827  0.25472852    -0.40900
C1089       C  0.49594174  0.80599721  0.07416492    -0.13200
C1090       C  0.02612442  0.80976682  0.08986590     0.03800
C1091       C  0.05030305  0.82842401  0.07191445    -0.08400
C1092       C  0.04234728  0.84946253  0.04321110    -0.09200
C1093       C  0.51071981  0.85368338  0.03492463    -0.03700
C1094       C  0.48814957  0.82752738  0.04588372     0.03100
N1095       N  0.45630840  0.82664777  0.03327703     0.65600
H1096       H  0.47756010  0.78964258  0.08642640     0.14500
H1097       H  0.06032312  0.86753354  0.03240433     0.14400
N1098       N  0.08230169  0.82863304  0.08371896     0.73300
O1099       O  0.44674497  0.80439274  0.01065794    -0.40200
O1100       O  0.43657047  0.84051243  0.05094746    -0.40100
O1101       O  0.09925566  0.80749580  0.07029679    -0.40800
O1102       O  0.09529248  0.85604044  0.09732803    -0.40900
C1103       C  0.00015268  0.70848169  0.42676717    -0.13200
C1104       C  0.47209884  0.70123288  0.40716598     0.03800
C1105       C  0.44618094  0.68405381  0.42318023    -0.08400
C1106       C  0.45093950  0.66766409  0.45574958    -0.09200
C1107       C  0.98193153  0.66496538  0.46861096    -0.03700
C1108       C  0.00482853  0.69113784  0.45860048     0.03100
N1109       N  0.03488175  0.69536684  0.47614430     0.65600
H1110       H  0.01927243  0.72441425  0.41595930     0.14500
H1111       H  0.43233990  0.65042405  0.46569550     0.14200
N1112       N  0.41597752  0.68061418  0.40594639     0.73300
O1113       O  0.05745526  0.68097048  0.46400200    -0.40200
O1114       O  0.04065640  0.72100195  0.49618187    -0.40100
O1115       O  0.40771912  0.65318040  0.38922861    -0.40800
O1116       O  0.39537049  0.70005904  0.41477179    -0.40900
C1117       C  0.40597109  0.85548261  0.84174375     0.85600
C1118       C  0.42288389  0.88170787  0.86735571    -0.54600
C1119       C  0.40452521  0.89878894  0.88857773     0.08500
C1120       C  0.36844142  0.88811556  0.88142056     0.19500
C1121       C  0.38448445  0.83071633  0.86595101    -0.55400
C1122       C  0.36419376  0.84708139  0.88670202     0.08600
C1123       C  0.38208669  0.87792424  0.82108823    -0.54900
C1124       C  0.36202470  0.89516449  0.84108721     0.09200
H1125       H  0.44821375  0.88643530  0.86863070     0.13700
H1126       H  0.35315693  0.90220280  0.89803535    -0.00500
H1127       H  0.38499772  0.80240994  0.86596588     0.14000
H1128       H  0.38136845  0.88015915  0.79277922     0.13800
C1129       C  0.14641263  0.61266188  0.66183768     0.85600
C1130       C  0.12359524  0.63312294  0.68274739    -0.54600
C1131       C  0.10278730  0.65270505  0.66348331     0.08500
C1132       C  0.10877330  0.65082368  0.62243383     0.19500
C1133       C  0.12405462  0.59139752  0.63573350    -0.55400
C1134       C  0.10410015  0.61034928  0.61497460     0.08600
C1135       C  0.16329775  0.64104122  0.63851091    -0.54900
C1136       C  0.14524041  0.66130453  0.61674099     0.09200
H1137       H  0.12294606  0.63055213  0.71099207     0.13700
H1138       H  0.09294040  0.66639338  0.60588576    -0.00500
H1139       H  0.12372891  0.56307154  0.63423294     0.14000
H1140       H  0.18866328  0.64368095  0.63839387     0.13800
N1141       N  0.04432754  0.02273318  0.93671839    -0.07000
N1142       N  0.06735921  0.01536650  0.91722968    -0.59100
N1143       N  0.49176830  0.57663354  0.95466140    -0.06700
N1144       N  0.47416182  0.60309615  0.95314879    -0.61300
N1145       N  0.01846248  0.58562266  0.97180117    -0.06300
N1146       N  0.01925422  0.61854978  0.98183745    -0.59100
N1147       N  0.01727821  0.01407936  0.92026896    -0.06000
N1148       N  0.02138288  0.00126128  0.88925945    -0.61600
C1149       C  0.05270975  0.00250113  0.88784635     0.95200
C1150       C  0.99117180  0.62887551  0.97029812     0.94900
N1151       N  0.42024134  0.51804773  0.99316834    -0.07200
N1152       N  0.39666767  0.53384703  0.50500226    -0.59700
N1153       N  0.45110343  0.96837701  0.93332819    -0.05300
N1154       N  0.43987090  0.95363830  0.90379978    -0.61000
N1155       N  0.43933519  0.95087249  0.96041521    -0.07200
N1156       N  0.41983171  0.92397158  0.94951496    -0.60000
N1157       N  0.42987810  0.53359375  0.96431712    -0.05000
N1158       N  0.41300029  0.55957231  0.95519438    -0.61000
Mn1159     Mn  0.47307998  0.52302757  0.94176949     1.18400
C1160       C  0.39216861  0.55926149  0.98036283     0.97300
C1161       C  0.42018067  0.92584815  0.91390490     0.97900
N1162       N  0.05708033  0.56943136  0.54359620    -0.07200
N1163       N  0.07752014  0.59543544  0.55475007    -0.63600
N1164       N  0.06680881  0.98554558  0.53759533    -0.06000
N1165       N  0.08354857  0.95921328  0.54584380    -0.64200
N1166       N  0.07661153  0.00219567  0.00933068    -0.06700
N1167       N  0.10012694  0.98660827  0.99690841    -0.63800
N1168       N  0.04690540  0.55038916  0.57047913    -0.05600
N1169       N  0.06065042  0.56279172  0.59996171    -0.64500
Mn1170     Mn  0.04996730  0.54603724  0.98928358     1.10700
C1171       C  0.07923632  0.59166886  0.59031636     0.98500
C1172       C  0.10447663  0.96034330  0.52071156     0.98500
N1173       N  0.47693503  0.93464550  0.53215980    -0.06800
N1174       N  0.47472475  0.90146469  0.52273320    -0.62100
N1175       N  0.48054171  0.50715639  0.58208704    -0.06100
N1176       N  0.47776913  0.52166526  0.61247280    -0.58900
N1177       N  0.45296825  0.49997039  0.56620573    -0.07400
N1178       N  0.43082786  0.51011058  0.58567901    -0.61700
N1179       N  0.50423574  0.94287883  0.54829117    -0.06400
N1180       N  0.02087830  0.91566999  0.54985662    -0.58900
Mn1181     Mn  0.44640272  0.97495258  0.51430593     1.20200
Mn1182     Mn  0.02409326  0.99638138  0.56085187     1.10100
Cl1183     Cl  0.49845118  0.50990415  0.00135023    -0.86900
C1184       C  0.50256844  0.89012623  0.53361110     0.95500
C1185       C  0.44682164  0.52374830  0.61402621     0.95300
N1186       N  0.29746681  0.70596494  0.02176329    -0.07000
N1187       N  0.30908939  0.67567902  0.01846635    -0.59100
N1188       N  0.29150570  0.77538503  0.56739334    -0.06700
N1189       N  0.30484372  0.78987462  0.59571067    -0.61300
N1190       N  0.27106097  0.74960462  0.57672647    -0.06300
N1191       N  0.26998452  0.74641125  0.61078817    -0.59100
N1192       N  0.31692697  0.73174399  0.01014436    -0.06000
N1193       N  0.34237338  0.71912001  0.99874979    -0.61600
C1194       C  0.33679817  0.68420274  0.00444303     0.95200
C1195       C  0.29117353  0.77147749  0.62247584     0.94900
N1196       N  0.26730170  0.84914551  0.49305297    -0.07200
N1197       N  0.26090295  0.88157851  0.49943685    -0.59700
N1198       N  0.31805352  0.80046831  0.95532230    -0.05300
N1199       N  0.34589514  0.81065036  0.94206156    -0.61000
N1200       N  0.29547083  0.81036724  0.93385674    -0.07200
N1201       N  0.30780217  0.82763704  0.90621157    -0.60000
N1202       N  0.28978214  0.83946900  0.51439792    -0.05000
N1203       N  0.29936574  0.86495295  0.53573152    -0.61000
Mn1204     Mn  0.30517413  0.78641302  0.51213029     1.18400
C1205       C  0.28132311  0.89125382  0.52611230     0.97300
C1206       C  0.33955951  0.82725420  0.91075791     0.97900
N1207       N  0.20387861  0.71068774  0.56461393    -0.07200
N1208       N  0.19489880  0.69287532  0.59311286    -0.63600
N1209       N  0.20847636  0.67963359  0.98380717    -0.06000
N1210       N  0.19998175  0.65312382  0.96310447    -0.64200
N1211       N  0.23125027  0.67153258  0.00545140    -0.06700
N1212       N  0.23890885  0.63945764  0.00033196    -0.63800
N1213       N  0.17952845  0.71669563  0.54406137    -0.05600
N1214       N  0.15342833  0.70177548  0.55882366    -0.64500
Mn1215     Mn  0.25132205  0.70997789  0.54246050     1.10700
C1216       C  0.16321756  0.68732139  0.59043361     0.98500
C1217       C  0.21910841  0.62805114  0.97393595     0.98500
N1218       N  0.22513379  0.77059114  0.92039882    -0.06800
N1219       N  0.22865278  0.76895074  0.88640426    -0.62100
N1220       N  0.18088989  0.78813787  0.48914003    -0.06100
N1221       N  0.15610340  0.80079657  0.50224621    -0.58900
N1222       N  0.20007804  0.81420185  0.47711949    -0.07400
N1223       N  0.18886018  0.84446887  0.48211856    -0.61700
N1224       N  0.20642407  0.74377533  0.93155586    -0.06400
N1225       N  0.19776494  0.72329501  0.90521375    -0.58900
Mn1226     Mn  0.24631556  0.81123082  0.95489680     1.20200
Mn1227     Mn  0.19224879  0.73259564  0.98662492     1.10100
Cl1228     Cl  0.24868189  0.76024615  0.49868044    -0.86900
C1229       C  0.21187363  0.73895945  0.87732830     0.95500
C1230       C  0.16178510  0.83587635  0.49752864     0.95300
N1231       N  0.44500676  0.75151330  0.69607593    -0.07000
N1232       N  0.41593152  0.73858272  0.69035323    -0.59100
N1233       N  0.50986157  0.79957249  0.67720468    -0.06700
N1234       N  0.02058973  0.82106296  0.65206561    -0.61300
N1235       N  0.51083498  0.76693291  0.66716213    -0.06300
N1236       N  0.02220457  0.76576672  0.63594144    -0.59100
N1237       N  0.44497473  0.78365216  0.70777698    -0.06000
N1238       N  0.41634771  0.79300036  0.71031465    -0.61600
C1239       C  0.39844806  0.76454988  0.69969025     0.95200
C1240       C  0.02876409  0.79950618  0.62672085     0.94900
N1241       N  0.04081309  0.82877853  0.77894523    -0.07200
N1242       N  0.07081255  0.83702038  0.78335188    -0.59700
N1243       N  0.46113804  0.82423991  0.77771384    -0.05300
N1244       N  0.43494534  0.83986932  0.78385814    -0.61000
N1245       N  0.47338574  0.81300305  0.80751453    -0.07200
N1246       N  0.45584414  0.82070594  0.83398693    -0.60000
N1247       N  0.03088028  0.83780712  0.74743273    -0.05000
N1248       N  0.05467458  0.85137916  0.72930742    -0.61000
Mn1249     Mn  0.48642242  0.81290740  0.72674784     1.18400
C1250       C  0.07936268  0.85090377  0.75244107     0.97300
C1251       C  0.43133509  0.83754963  0.81945396     0.97900
N1252       N  0.03313201  0.69393080  0.69274878    -0.07200
N1253       N  0.05103917  0.68565834  0.66661707    -0.63600
N1254       N  0.47645128  0.66925529  0.75396773    -0.06000
N1255       N  0.45458267  0.65481370  0.77416472    -0.64200
N1256       N  0.46404867  0.67980263  0.72406964    -0.06700
N1257       N  0.43341385  0.67280346  0.72358884    -0.63800
N1258       N  0.04520353  0.68346427  0.72292759    -0.05600
N1259       N  0.07147718  0.66800045  0.71761190    -0.64500
Mn1260     Mn  0.48810208  0.72243426  0.69374057     1.10700
C1261       C  0.07544814  0.66926324  0.68215545     0.98500
C1262       C  0.42785688  0.65693942  0.75479901     0.98500
N1263       N  0.99554683  0.74121818  0.83196625    -0.06800
N1264       N  0.48114226  0.74341027  0.86124714    -0.62100
N1265       N  0.06170835  0.72378768  0.79268214    -0.06100
N1266       N  0.08934176  0.71161779  0.79232789    -0.58900
N1267       N  0.06314970  0.75594522  0.80472135    -0.07400
N1268       N  0.09293661  0.76604981  0.81280017    -0.61700
N1269       N  0.99636170  0.70849291  0.82248399    -0.06400
N1270       N  0.48267269  0.68766569  0.84650520    -0.58900
Mn1271     Mn  0.01858642  0.78523500  0.80688698     1.20200
Mn1272     Mn  0.02032826  0.69504596  0.77355688     1.10100
Cl1273     Cl  0.50358028  0.75405161  0.75002440    -0.86900
C1274       C  0.47289951  0.71008809  0.87020413     0.95500
C1275       C  0.10873653  0.73786061  0.80474760     0.95300
N1276       N  0.29372573  0.93852249  0.80589233    -0.07000
N1277       N  0.30624078  0.90950963  0.81823885    -0.59100
N1278       N  0.27171880  0.51054650  0.84323403    -0.06700
N1279       N  0.26998410  0.53172184  0.86945181    -0.61300
N1280       N  0.24888328  0.48573143  0.84328099    -0.06300
N1281       N  0.23039033  0.48983874  0.86948613    -0.59100
N1282       N  0.31544133  0.96479877  0.80542114    -0.06000
N1283       N  0.34288228  0.95406106  0.81728944    -0.61600
C1284       C  0.33732515  0.91914691  0.82500223     0.95200
C1285       C  0.24446089  0.51830191  0.88587944     0.94900
N1286       N  0.27531345  0.58910878  0.76379444    -0.07200
N1287       N  0.28725709  0.62212264  0.76310634    -0.59700
N1288       N  0.32637812  0.03053801  0.75160017    -0.05300
N1289       N  0.35646952  0.02716901  0.74816983    -0.61000
N1290       N  0.31392926  0.04469510  0.72310949    -0.07200
N1291       N  0.33538095  0.05135341  0.69993604    -0.60000
N1292       N  0.28449327  0.57399403  0.79349644    -0.05000
N1293       N  0.29963768  0.59733626  0.81376540    -0.61000
Mn1294     Mn  0.29986698  0.51994738  0.79812576     1.18400
C1295       C  0.30341054  0.62679693  0.79410429     0.97300
C1296       C  0.36160011  0.04048187  0.71584347     0.97900
N1297       N  0.19315348  0.46453739  0.79178779    -0.07200
N1298       N  0.17216944  0.45809005  0.81567704    -0.63600
N1299       N  0.21972576  0.93375226  0.72230952    -0.06000
N1300       N  0.20287390  0.90823427  0.70625988    -0.64200
N1301       N  0.23431631  0.92086234  0.75026121    -0.06700
N1302       N  0.22748216  0.88673123  0.75262501    -0.63800
N1303       N  0.18006839  0.47804157  0.76331224    -0.05600
N1304       N  0.14995637  0.48041688  0.76727752    -0.64500
Mn1305     Mn  0.24256310  0.95160696  0.79782818     1.10700
C1306       C  0.14539840  0.46752041  0.79996236     0.98500
C1307       C  0.20639290  0.87924739  0.72628660     0.98500
N1308       N  0.25788015  0.02274248  0.67104760    -0.06800
N1309       N  0.27558948  0.01967201  0.64392169    -0.62100
N1310       N  0.19130336  0.54439671  0.70741078    -0.06100
N1311       N  0.16438975  0.55485383  0.69336501    -0.58900
N1312       N  0.21317880  0.57067465  0.70700483    -0.07400
N1313       N  0.20106359  0.59906770  0.69242690    -0.61700
N1314       N  0.23528368  0.99749062  0.67131207    -0.06400
N1315       N  0.23663821  0.97699629  0.64439755    -0.58900
Mn1316     Mn  0.26489033  0.55785811  0.71607240     1.20200
Mn1317     Mn  0.20603745  0.98851554  0.71617383     1.10100
Cl1318     Cl  0.25314783  0.50466832  0.75684899    -0.86900
C1319       C  0.26160560  0.99126546  0.62740070     0.95500
C1320       C  0.17002356  0.58959052  0.68449782     0.95300
C1321       C  0.35968415  0.62535849  0.80962090    -0.13200
C1322       C  0.33555166  0.64450180  0.79444011     0.03800
C1323       C  0.34385622  0.67248031  0.77134105    -0.08400
C1324       C  0.37441487  0.67681318  0.75936058    -0.09200
C1325       C  0.39676630  0.65336726  0.77001131    -0.03700
C1326       C  0.38963297  0.62852976  0.79661948     0.03100
N1327       N  0.41098951  0.60321680  0.80751467     0.65600
H1328       H  0.35467108  0.60442442  0.82835931     0.14500
H1329       H  0.38040972  0.69785474  0.74130041     0.14200
N1330       N  0.32172664  0.69669941  0.76000737     0.73300
O1331       O  0.42404014  0.60505136  0.83759766    -0.40200
O1332       O  0.41048563  0.57489398  0.79117419    -0.40100
O1333       O  0.32352175  0.72678111  0.77314081    -0.40800
O1334       O  0.30548781  0.69119086  0.73221655    -0.40900
C1335       C  0.13384809  0.85688267  0.77252684    -0.13200
C1336       C  0.11248697  0.85379631  0.74413004     0.03800
C1337       C  0.12337597  0.84822296  0.71073144    -0.08400
C1338       C  0.15566905  0.85075959  0.70569872    -0.09200
C1339       C  0.17718834  0.85796716  0.73389816    -0.03700
C1340       C  0.16573219  0.85778617  0.76824372     0.03100
N1341       N  0.18553243  0.86169788  0.79922538     0.65600
H1342       H  0.12580700  0.85908351  0.79872132     0.14500
H1343       H  0.16388577  0.85015857  0.67930085     0.14200
N1344       N  0.10205847  0.84014370  0.68196354     0.73300
O1345       O  0.19351249  0.89212318  0.80990467    -0.40200
O1346       O  0.18493671  0.83687171  0.82144946    -0.40100
O1347       O  0.08898860  0.86465010  0.66619949    -0.40800
O1348       O  0.09105582  0.80884409  0.67784702    -0.40900
C1349       C  0.25478549  0.97334291  0.56620934    -0.13200
C1350       C  0.27335054  0.97436990  0.59714813     0.03800
C1351       C  0.29796671  0.95231168  0.60126729    -0.08400
C1352       C  0.30177382  0.92748547  0.57592786    -0.09200
C1353       C  0.28101828  0.92365567  0.54664185    -0.03700
C1354       C  0.25857461  0.94847154  0.54073829     0.03100
N1355       N  0.23845951  0.94799802  0.51008510     0.65600
H1356       H  0.23592560  0.99032258  0.56286206     0.14500
H1357       H  0.31965891  0.90947972  0.58070624     0.14200
N1358       N  0.31700105  0.95182999  0.63274722     0.73300
O1359       O  0.21183549  0.93148427  0.51081294    -0.40200
O1360       O  0.24366364  0.97097520  0.48646174    -0.40100
O1361       O  0.31017252  0.92904500  0.65613404    -0.40800
O1362       O  0.34431573  0.96676819  0.63284521    -0.40900
C1363       C  0.20185803  0.58757365  0.92593663    -0.13200
C1364       C  0.22092114  0.59436057  0.95609676     0.03800
C1365       C  0.24325205  0.57039619  0.96634112    -0.08400
C1366       C  0.24848759  0.54302352  0.94432270    -0.09200
C1367       C  0.23103743  0.53804395  0.91299067    -0.03700
C1368       C  0.20666868  0.55957514  0.90446524     0.03100
N1369       N  0.18879070  0.55572162  0.87230043     0.65600
H1370       H  0.18436438  0.60512946  0.91779962     0.14500
H1371       H  0.26750262  0.52687536  0.95072922     0.14200
N1372       N  0.26156414  0.57384487  0.99827855     0.73300
O1373       O  0.16152356  0.54069609  0.87257490    -0.40200
O1374       O  0.19692260  0.57430293  0.84606990    -0.40100
O1375       O  0.25295875  0.55575742  0.02463753    -0.40800
O1376       O  0.28945914  0.58700284  0.99757671    -0.40900
C1377       C  0.16527821  0.75998039  0.80479006    -0.13200
C1378       C  0.14212511  0.73318705  0.81222095     0.03800
C1379       C  0.15177261  0.70061612  0.82535692    -0.08400
C1380       C  0.18221744  0.69887206  0.83886929    -0.09200
C1381       C  0.20190017  0.72960709  0.84129014    -0.03700
C1382       C  0.19634129  0.75692804  0.81716133     0.03100
N1383       N  0.22181271  0.77957874  0.80396448     0.65600
H1384       H  0.15918141  0.78263945  0.78907008     0.14500
H1385       H  0.18787648  0.67570310  0.85396813     0.14200
N1386       N  0.13052612  0.67008929  0.82848321     0.73300
O1387       O  0.21844979  0.79514789  0.77479081    -0.40200
O1388       O  0.24908160  0.77860423  0.81743916    -0.40100
O1389       O  0.13100083  0.64631181  0.80625250    -0.40800
O1390       O  0.11870580  0.66260543  0.85761417    -0.40900
C1391       C  0.32020475  0.79494085  0.67395175    -0.13200
C1392       C  0.30892752  0.76576645  0.65476480     0.03800
C1393       C  0.32220760  0.73337721  0.66032965    -0.08400
C1394       C  0.34987434  0.73256856  0.68004270    -0.09200
C1395       C  0.36450212  0.76343956  0.69379630    -0.03700
C1396       C  0.34784870  0.79387121  0.69418906     0.03100
N1397       N  0.35963966  0.82470257  0.71228691     0.65600
H1398       H  0.30943898  0.81937109  0.67048613     0.14500
H1399       H  0.36162238  0.70867956  0.68074950     0.14200
N1400       N  0.31163805  0.70279265  0.64100307     0.73300
O1401       O  0.37248858  0.85013062  0.69520494    -0.40200
O1402       O  0.34904294  0.83027455  0.74173379    -0.40100
O1403       O  0.32479829  0.69666665  0.61315643    -0.40800
O1404       O  0.29540024  0.67828473  0.65586544    -0.40900
C1405       C  0.38784248  0.61096864  0.01491753    -0.13200
C1406       C  0.37682486  0.59079281  0.98637853     0.03800
C1407       C  0.35699592  0.60486517  0.96050439    -0.08400
C1408       C  0.34647277  0.63789219  0.96508674    -0.09200
C1409       C  0.35619533  0.65719543  0.99471755    -0.03700
C1410       C  0.37734659  0.64393050  0.01953254     0.03100
N1411       N  0.38748314  0.66307987  0.05006995     0.65600
H1412       H  0.40534624  0.60150226  0.03301046     0.14500
H1413       H  0.32949368  0.64771629  0.94644660     0.14200
N1414       N  0.34688704  0.58569187  0.92994792     0.73300
O1415       O  0.37226274  0.65839884  0.07751067    -0.40200
O1416       O  0.41482947  0.67790768  0.05196225    -0.40100
O1417       O  0.32032433  0.56896348  0.42891079    -0.40800
O1418       O  0.36076602  0.59223510  0.90185333    -0.40900
C1419       C  0.15211833  0.88310894  0.53641481    -0.13200
C1420       C  0.14218903  0.86290484  0.50742158     0.03800
C1421       C  0.12040672  0.87533032  0.48280807    -0.08400
C1422       C  0.11033085  0.90878481  0.48609283    -0.09200
C1423       C  0.12086286  0.92942833  0.51454491    -0.03700
C1424       C  0.14082344  0.91588398  0.54070363     0.03100
N1425       N  0.14978812  0.93507248  0.57161558     0.65600
H1426       H  0.16934210  0.87391387  0.55506574     0.14500
H1427       H  0.09335677  0.91806528  0.46720257     0.14200
N1428       N  0.10842852  0.85423504  0.45428574     0.73300
O1429       O  0.13512950  0.92819160  0.59915614    -0.40200
O1430       O  0.17593107  0.95268325  0.57353135    -0.40100
O1431       O  0.08122388  0.83914154  0.45539371    -0.40800
O1432       O  0.12224421  0.85616983  0.42578994    -0.40900
C1433       C  0.09381927  0.49055360  0.80509022    -0.13200
C1434       C  0.11606548  0.46812493  0.81805001     0.03800
C1435       C  0.11197368  0.95104248  0.85093891    -0.08400
C1436       C  0.08885221  0.96073333  0.87219254    -0.09200
C1437       C  0.06934147  0.98652130  0.86099041    -0.03700
C1438       C  0.07027052  0.49982879  0.82633054     0.03100
N1439       N  0.04971898  0.52521464  0.81359977     0.65600
H1440       H  0.09615464  0.50317066  0.77971988     0.14500
H1441       H  0.08727642  0.94950936  0.89827500     0.14200
N1442       N  0.13160356  0.92472561  0.86359750     0.73300
O1443       O  0.05856646  0.55736908  0.81586101    -0.40200
O1444       O  0.02772289  0.01549430  0.79204435    -0.40100
O1445       O  0.15134903  0.43179458  0.88801476    -0.40800
O1446       O  0.12329120  0.89304738  0.85732109    -0.40900
C1447       C  0.39491056  0.06795923  0.67181637    -0.13200
C1448       C  0.39116917  0.04229334  0.69825274     0.03800
C1449       C  0.41174712  0.01538032  0.70129746    -0.08400
C1450       C  0.43274237  0.51220324  0.67470684    -0.09200
C1451       C  0.43207228  0.53422711  0.64503834    -0.03700
C1452       C  0.41423528  0.56328700  0.64410779     0.03100
N1453       N  0.41318895  0.58622904  0.61432453     0.65600
H1454       H  0.37993950  0.08935696  0.66993296     0.14500
H1455       H  0.44710593  0.49028050  0.67567299     0.14200
N1456       N  0.40961131  0.98940663  0.72867326     0.73300
O1457       O  0.39177079  0.08314322  0.59337487    -0.40200
O1458       O  0.42822370  0.61593355  0.61565040    -0.40100
O1459       O  0.39477319  0.96017229  0.72277476    -0.40800
O1460       O  0.42975088  0.49383196  0.75474560    -0.40900
C1461       C  0.49593360  0.80598281  0.57417373    -0.13200
C1462       C  0.02611986  0.80975361  0.58987975     0.03800
C1463       C  0.05029848  0.82840995  0.57192746    -0.08400
C1464       C  0.04234194  0.84945393  0.54322863    -0.09200
C1465       C  0.51071755  0.85367352  0.53494045    -0.03700
C1466       C  0.48814454  0.82751861  0.54589580     0.03100
N1467       N  0.45630435  0.82664218  0.53328628     0.65600
H1468       H  0.47755034  0.78962859  0.58643185     0.14500
H1469       H  0.06031909  0.86752313  0.53242002     0.14400
N1470       N  0.08229857  0.82860951  0.58372485     0.73300
O1471       O  0.44674268  0.80439223  0.51066159    -0.40200
O1472       O  0.43656494  0.84050144  0.55095917    -0.40100
O1473       O  0.09924243  0.80746136  0.57030328    -0.40800
O1474       O  0.09530059  0.85601630  0.59732451    -0.40900
C1475       C  0.00018920  0.70845701  0.92677342    -0.13200
C1476       C  0.47213449  0.70122501  0.90719361     0.03800
C1477       C  0.44621732  0.68405951  0.92322202    -0.08400
C1478       C  0.45098000  0.66768210  0.95579672    -0.09200
C1479       C  0.98196818  0.66496811  0.96864347    -0.03700
C1480       C  0.00486988  0.69112698  0.95861312     0.03100
N1481       N  0.03492925  0.69535153  0.97614398     0.65600
H1482       H  0.01931054  0.72437897  0.91595065     0.14500
H1483       H  0.43237859  0.65045159  0.96575481     0.14200
N1484       N  0.41601125  0.68061349  0.90599523     0.73300
O1485       O  0.05749189  0.68093518  0.96400200    -0.40200
O1486       O  0.04072085  0.72099834  0.99616355    -0.40100
O1487       O  0.40774877  0.65316888  0.88929645    -0.40800
O1488       O  0.39540568  0.70006091  0.91481908    -0.40900
C1489       C  0.90592698  0.35551121  0.34157268     0.85600
C1490       C  0.92284548  0.38172391  0.36718925    -0.54600
C1491       C  0.90449720  0.39879038  0.38843106     0.08500
C1492       C  0.86840968  0.38810931  0.38128952     0.19500
C1493       C  0.88445206  0.33072364  0.36577581    -0.55400
C1494       C  0.86416461  0.34707012  0.38654861     0.08600
C1495       C  0.88203607  0.37795248  0.32094082    -0.54900
C1496       C  0.86198056  0.39517241  0.34096060     0.09200
H1497       H  0.94817482  0.38645980  0.36844794     0.13700
H1498       H  0.85312846  0.40218653  0.39791718    -0.00500
H1499       H  0.88496867  0.30241805  0.36576946     0.14000
H1500       H  0.88130866  0.38020420  0.29263245     0.13800
C1501       C  0.64644865  0.11269455  0.16196842     0.85600
C1502       C  0.62361570  0.13318604  0.18283812    -0.54600
C1503       C  0.60279662  0.15272778  0.16353456     0.08500
C1504       C  0.60880269  0.15079657  0.12249499     0.19500
C1505       C  0.62408819  0.09139094  0.13589157    -0.55400
C1506       C  0.60413191  0.11031296  0.11510109     0.08600
C1507       C  0.66333099  0.14104596  0.13859713    -0.54900
C1508       C  0.64527233  0.16127802  0.11679015     0.09200
H1509       H  0.62295106  0.13064606  0.21108395     0.13700
H1510       H  0.59296715  0.16633680  0.10591892    -0.00500
H1511       H  0.62375965  0.06306144  0.13443603     0.14000
H1512       H  0.68869647  0.14368987  0.13847976     0.13800
N1513       N  0.54431705  0.52271270  0.43651837    -0.07000
N1514       N  0.56734388  0.51534975  0.41702217    -0.59100
N1515       N  0.99177241  0.07669550  0.45480062    -0.06700
N1516       N  0.97418758  0.10317563  0.45321164    -0.61300
N1517       N  0.51841454  0.08563618  0.47198915    -0.06300
N1518       N  0.51925258  0.11859794  0.48193028    -0.59100
N1519       N  0.51726542  0.51405633  0.42007340    -0.06000
N1520       N  0.52136132  0.50124048  0.38906314    -0.61600
C1521       C  0.55268574  0.50248651  0.38764292     0.95200
C1522       C  0.49118411  0.12894287  0.47035798     0.94900
N1523       N  0.92018736  0.01812484  0.49329293    -0.07200
N1524       N  0.89649412  0.03382264  0.00499069    -0.59700
N1525       N  0.95114555  0.46835792  0.43314354    -0.05300
N1526       N  0.93988478  0.45362141  0.40362402    -0.61000
N1527       N  0.93937440  0.45087106  0.46023854    -0.07200
N1528       N  0.91984384  0.42398586  0.44935472    -0.60000
N1529       N  0.92985111  0.03365942  0.46444854    -0.05000
N1530       N  0.91289141  0.05953950  0.45521554    -0.61000
Mn1531     Mn  0.97308475  0.02308230  0.44195332     1.18400
C1532       C  0.89197540  0.05917331  0.48030625     0.97300
C1533       C  0.92017492  0.42585242  0.41374445     0.97900
N1534       N  0.55706515  0.06938841  0.04376186    -0.07200
N1535       N  0.57751828  0.09538474  0.05490171    -0.63600
N1536       N  0.56684417  0.48545320  0.03735698    -0.06000
N1537       N  0.58360676  0.45914197  0.04559818    -0.64200
N1538       N  0.57664251  0.50214798  0.50909928    -0.06700
N1539       N  0.60017726  0.48659758  0.49667085    -0.63800
N1540       N  0.54690139  0.05034914  0.07065096    -0.05600
N1541       N  0.56067208  0.06274236  0.10012559    -0.64500
Mn1542     Mn  0.54991992  0.04603046  0.48945207     1.10700
C1543       C  0.57926170  0.09161219  0.09046530     0.98500
C1544       C  0.60453577  0.46030612  0.02046844     0.98500
N1545       N  0.97697431  0.43465583  0.03197307    -0.06800
N1546       N  0.97476050  0.40147367  0.02255240    -0.62100
N1547       N  0.98053057  0.00745811  0.08227107    -0.06100
N1548       N  0.97781358  0.02203688  0.11263178    -0.58900
N1549       N  0.95293465  0.00026366  0.06644081    -0.07400
N1550       N  0.93083293  0.01044850  0.08595527    -0.61700
N1551       N  0.00427639  0.44288834  0.04810416    -0.06400
N1552       N  0.52095071  0.41549474  0.04951649    -0.58900
Mn1553     Mn  0.94644413  0.47496716  0.01411571     1.20200
Mn1554     Mn  0.52412428  0.49620343  0.06063238     1.10100
Cl1555     Cl  0.99842963  0.01001939  0.50155361    -0.86900
C1556       C  0.00260348  0.39013407  0.03343164     0.95500
C1557       C  0.94687975  0.02417043  0.11424165     0.95300
N1558       N  0.79748859  0.20599525  0.52177913    -0.07000
N1559       N  0.80913685  0.17570878  0.51860160    -0.59100
N1560       N  0.79150570  0.27545201  0.06728907    -0.06700
N1561       N  0.80484152  0.28996303  0.09559764    -0.61300
N1562       N  0.77104252  0.24969806  0.07664351    -0.06300
N1563       N  0.76994418  0.24655087  0.11070480    -0.59100
N1564       N  0.81693744  0.23175047  0.51009402    -0.06000
N1565       N  0.84239656  0.21910750  0.49875613    -0.61600
C1566       C  0.83684729  0.18420667  0.50457835     0.95200
C1567       C  0.79114827  0.27160725  0.12237571     0.94900
N1568       N  0.76731638  0.34913765  0.99288749    -0.07200
N1569       N  0.76094124  0.38158622  0.99924258    -0.59700
N1570       N  0.81804380  0.30042455  0.45517484    -0.05300
N1571       N  0.84588000  0.31062154  0.44190711    -0.61000
N1572       N  0.79545244  0.31031150  0.43371205    -0.07200
N1573       N  0.80777506  0.32758628  0.40606324    -0.60000
N1574       N  0.78980872  0.33947395  0.01422037    -0.05000
N1575       N  0.79942572  0.36497790  0.03551410    -0.61000
Mn1576     Mn  0.80518012  0.28641757  0.01200781     1.18400
C1577       C  0.78138937  0.39128045  0.02588853     0.97300
C1578       C  0.83953543  0.32722030  0.41060269     0.97900
N1579       N  0.70389295  0.21066978  0.06460303    -0.07200
N1580       N  0.69492703  0.19285128  0.09310782    -0.63600
N1581       N  0.70850657  0.17962497  0.48381022    -0.06000
N1582       N  0.70001491  0.15310092  0.46313090    -0.64200
N1583       N  0.73128688  0.17154832  0.50545755    -0.06700
N1584       N  0.73895654  0.13947586  0.50036257    -0.63800
N1585       N  0.67953739  0.21665102  0.04404969    -0.05600
N1586       N  0.65344672  0.20171405  0.05882438    -0.64500
Mn1587     Mn  0.75133793  0.21001262  0.04244097     1.10700
C1588       C  0.66324582  0.18727249  0.09044027     0.98500
C1589       C  0.71915241  0.12804845  0.47398083     0.98500
N1590       N  0.72508493  0.27054241  0.42031646    -0.06800
N1591       N  0.72854234  0.26893157  0.38630842    -0.62100
N1592       N  0.68090536  0.28808551  0.98909729    -0.06100
N1593       N  0.65613872  0.30074649  0.00224215    -0.58900
N1594       N  0.70008801  0.31414651  0.97705861    -0.07400
N1595       N  0.68888743  0.34441482  0.98208791    -0.61700
N1596       N  0.70637867  0.24372945  0.43149007    -0.06400
N1597       N  0.69765901  0.22328031  0.40513768    -0.58900
Mn1598     Mn  0.74630446  0.31118780  0.45478628     1.20200
Mn1599     Mn  0.69225043  0.23255993  0.48659769     1.10100
Cl1600     Cl  0.74868766  0.26022711  0.99859812    -0.86900
C1601       C  0.71173122  0.23896119  0.37723519     0.95500
C1602       C  0.66183234  0.33582442  0.99753771     0.95300
N1603       N  0.94495745  0.25160067  0.19594681    -0.07000
N1604       N  0.91588022  0.23865106  0.19027335    -0.59100
N1605       N  0.00981469  0.29965663  0.17700904    -0.06700
N1606       N  0.52046318  0.32094184  0.15174073    -0.61300
N1607       N  0.01078728  0.26700603  0.16699872    -0.06300
N1608       N  0.52204857  0.26562357  0.13566538    -0.59100
N1609       N  0.94492465  0.28375597  0.20760562    -0.06000
N1610       N  0.91629542  0.29309670  0.21016020    -0.61600
C1611       C  0.89839432  0.26462251  0.19959724     0.95200
C1612       C  0.52862409  0.29935454  0.12641587     0.94900
N1613       N  0.54069951  0.32875959  0.27864027    -0.07200
N1614       N  0.57068818  0.33705657  0.28306647    -0.59700
N1615       N  0.96110857  0.32437154  0.27751498    -0.05300
N1616       N  0.93489188  0.33995133  0.28366705    -0.61000
N1617       N  0.97337809  0.31315711  0.30731385    -0.07200
N1618       N  0.95582804  0.32081947  0.33378997    -0.60000
N1619       N  0.53076604  0.33777884  0.24712589    -0.05000
N1620       N  0.55455121  0.35140640  0.22901893    -0.61000
Mn1621     Mn  0.98637924  0.31303268  0.22654244     1.18400
C1622       C  0.57923456  0.35097324  0.25216652     0.97300
C1623       C  0.93129275  0.33761771  0.31926462     0.97900
N1624       N  0.53302267  0.19385594  0.19265015    -0.07200
N1625       N  0.55098441  0.18560126  0.16655876    -0.63600
N1626       N  0.97646343  0.16940181  0.25392911    -0.06000
N1627       N  0.95462346  0.15497768  0.27417162    -0.64200
N1628       N  0.96402652  0.17992621  0.22404038    -0.06700
N1629       N  0.93339093  0.17293211  0.22361741    -0.63800
N1630       N  0.54506838  0.18341826  0.22285405    -0.05600
N1631       N  0.57137644  0.16799754  0.21759481    -0.64500
Mn1632     Mn  0.98806588  0.22252648  0.19363513     1.10700
C1633       C  0.57539875  0.16924981  0.18214831     0.98500
C1634       C  0.92787396  0.15709261  0.25485105     0.98500
N1635       N  0.49540693  0.24130020  0.33180635    -0.06800
N1636       N  0.98117785  0.24364106  0.36112771    -0.62100
N1637       N  0.56154061  0.22375192  0.29256808    -0.06100
N1638       N  0.58915842  0.21154321  0.29223912    -0.58900
N1639       N  0.56301038  0.25593664  0.30453592    -0.07400
N1640       N  0.59280494  0.26602600  0.31258593    -0.61700
N1641       N  0.49619086  0.20855987  0.32236142    -0.06400
N1642       N  0.98269286  0.18789012  0.34640077    -0.58900
Mn1643     Mn  0.51846606  0.28525953  0.30664180     1.20200
Mn1644     Mn  0.52016013  0.19504386  0.27344851     1.10100
Cl1645     Cl  0.00356119  0.25420628  0.24987277    -0.86900
C1646       C  0.97292995  0.21032089  0.37009540     0.95500
C1647       C  0.60857634  0.23779371  0.30459481     0.95300
N1648       N  0.79369014  0.43852280  0.30577655    -0.07000
N1649       N  0.80620106  0.40951140  0.31812786    -0.59100
N1650       N  0.77174955  0.01051154  0.34340549    -0.06700
N1651       N  0.77000663  0.03169415  0.36961279    -0.61300
N1652       N  0.74891611  0.98569499  0.34345517    -0.06300
N1653       N  0.73041406  0.98980611  0.36964707    -0.59100
N1654       N  0.81540758  0.46479829  0.30530235    -0.06000
N1655       N  0.84284585  0.45406202  0.31717402    -0.61600
C1656       C  0.83728283  0.41915209  0.32489322     0.95200
C1657       C  0.74447899  0.01827296  0.38603019     0.94900
N1658       N  0.77540219  0.08909444  0.26398441    -0.07200
N1659       N  0.78733689  0.12211180  0.26329455    -0.59700
N1660       N  0.82638851  0.53054191  0.25147636    -0.05300
N1661       N  0.85649006  0.52721882  0.24802556    -0.61000
N1662       N  0.81391515  0.54467276  0.22298744    -0.07200
N1663       N  0.83534488  0.55135006  0.19980074    -0.60000
N1664       N  0.78460992  0.07397453  0.29367444    -0.05000
N1665       N  0.79980119  0.09730701  0.31392016    -0.61000
Mn1666     Mn  0.79989975  0.01989903  0.29830634     1.18400
C1667       C  0.80351941  0.12678464  0.29427498     0.97300
C1668       C  0.86159131  0.54053344  0.21568630     0.97900
N1669       N  0.69315833  0.96455901  0.29200527    -0.07200
N1670       N  0.67217639  0.95813302  0.31590307    -0.63600
N1671       N  0.71974082  0.43374205  0.22216748    -0.06000
N1672       N  0.70288889  0.40824801  0.20608616    -0.64200
N1673       N  0.73428213  0.42083553  0.25014257    -0.06700
N1674       N  0.72740099  0.38671054  0.25249764    -0.63800
N1675       N  0.68007334  0.97808444  0.26353977    -0.05600
N1676       N  0.64996630  0.98048778  0.26751725    -0.64500
Mn1677     Mn  0.74253406  0.45159789  0.29771174     1.10700
C1678       C  0.64540735  0.96759374  0.30020207     0.98500
C1679       C  0.70633652  0.37925779  0.22612477     0.98500
N1680       N  0.75791763  0.52269040  0.17092013    -0.06800
N1681       N  0.77565884  0.51959686  0.14382358    -0.62100
N1682       N  0.69133224  0.04443959  0.20761791    -0.06100
N1683       N  0.66442088  0.05490718  0.19357103    -0.58900
N1684       N  0.71322355  0.07070322  0.20718266    -0.07400
N1685       N  0.70111427  0.09909381  0.19258032    -0.61700
N1686       N  0.73532573  0.49743409  0.17117877    -0.06400
N1687       N  0.73671696  0.47691161  0.14428965    -0.58900
Mn1688     Mn  0.76495051  0.05784700  0.21625160     1.20200
Mn1689     Mn  0.70605639  0.48848418  0.21603032     1.10100
Cl1690     Cl  0.75317038  0.00465621  0.25703628    -0.86900
C1691       C  0.76170568  0.49116547  0.12731661     0.95500
C1692       C  0.67006397  0.08963517  0.18466748     0.95300
C1693       C  0.85979990  0.12560176  0.30988219    -0.13200
C1694       C  0.83561629  0.14461139  0.29461719     0.03800
C1695       C  0.84385739  0.17252177  0.27141300    -0.08400
C1696       C  0.87440333  0.17688289  0.25940273    -0.09200
C1697       C  0.89680591  0.15352541  0.27012449    -0.03700
C1698       C  0.88973835  0.12877828  0.29683899     0.03100
N1699       N  0.91112445  0.10350167  0.30775567     0.65600
H1700       H  0.85482618  0.10472530  0.32868269     0.14500
H1701       H  0.88033540  0.19784614  0.24124480     0.14200
N1702       N  0.82164646  0.19658080  0.25990748     0.73300
O1703       O  0.92412078  0.10531612  0.33786673    -0.40200
O1704       O  0.91071211  0.07521405  0.29137046    -0.40100
O1705       O  0.82325975  0.22669220  0.27295897    -0.40800
O1706       O  0.80557704  0.19094412  0.23202380    -0.40900
C1707       C  0.63371821  0.35689998  0.27228841    -0.13200
C1708       C  0.61236667  0.35391511  0.24387278     0.03800
C1709       C  0.62326993  0.34848736  0.21045110    -0.08400
C1710       C  0.65556633  0.35096288  0.20544863    -0.09200
C1711       C  0.67708191  0.35804240  0.23368136    -0.03700
C1712       C  0.66560624  0.35780625  0.26802157     0.03100
N1713       N  0.68538915  0.36169208  0.29901982     0.65600
H1714       H  0.62566733  0.35904026  0.29849039     0.14500
H1715       H  0.66379449  0.35044639  0.17904845     0.14200
N1716       N  0.60196081  0.34068467  0.18161136     0.73300
O1717       O  0.69340126  0.39211075  0.30969653    -0.40200
O1718       O  0.68474269  0.33687405  0.32125339    -0.40100
O1719       O  0.58889840  0.36533874  0.16609329    -0.40800
O1720       O  0.59094689  0.30943234  0.17720455    -0.40900
C1721       C  0.75484477  0.47330461  0.06610432    -0.13200
C1722       C  0.77343769  0.47430801  0.09702511     0.03800
C1723       C  0.79809184  0.45228979  0.10106303    -0.08400
C1724       C  0.80190043  0.42751736  0.07567040    -0.09200
C1725       C  0.78109919  0.42368115  0.04642394    -0.03700
C1726       C  0.75862343  0.44847078  0.04059074     0.03100
N1727       N  0.73845804  0.44799905  0.00997708     0.65600
H1728       H  0.73596882  0.49026642  0.06280749     0.14500
H1729       H  0.81981984  0.40954280  0.08038619     0.14200
N1730       N  0.81717305  0.45178486  0.13250680     0.73300
O1731       O  0.71194502  0.43123199  0.01066668    -0.40200
O1732       O  0.74345482  0.47116428  0.98648342    -0.40100
O1733       O  0.81044265  0.42889737  0.15582974    -0.40800
O1734       O  0.84446405  0.46678399  0.13257488    -0.40900
C1735       C  0.70189046  0.08755642  0.42602613    -0.13200
C1736       C  0.72096090  0.09435317  0.45617584     0.03800
C1737       C  0.74329060  0.07039568  0.46643698    -0.08400
C1738       C  0.74850944  0.04300295  0.44444456    -0.09200
C1739       C  0.73104897  0.03800937  0.41312345    -0.03700
C1740       C  0.70668835  0.05954445  0.40457721     0.03100
N1741       N  0.68880915  0.05568353  0.37241333     0.65600
H1742       H  0.68440025  0.10511274  0.41787841     0.14500
H1743       H  0.76752815  0.02685950  0.45085338     0.14200
N1744       N  0.76162501  0.07387653  0.49835653     0.73300
O1745       O  0.66158922  0.04053440  0.37268114    -0.40200
O1746       O  0.69683990  0.07440198  0.34623584    -0.40100
O1747       O  0.75306535  0.05577185  0.52472272    -0.40800
O1748       O  0.78950753  0.08707044  0.49762156    -0.40900
C1749       C  0.66508553  0.25998665  0.30469004    -0.13200
C1750       C  0.64197143  0.23312673  0.31202119     0.03800
C1751       C  0.65167096  0.20054653  0.32507322    -0.08400
C1752       C  0.68207615  0.19887817  0.33873641    -0.09200
C1753       C  0.70171717  0.22964137  0.34119930    -0.03700
C1754       C  0.69614462  0.25696872  0.31708013     0.03100
N1755       N  0.72160476  0.27960587  0.30384120     0.65600
H1756       H  0.65896686  0.28265464  0.28900276     0.14500
H1757       H  0.68775381  0.17570136  0.35380781     0.14200
N1758       N  0.63053117  0.16989206  0.32786202     0.73300
O1759       O  0.71821101  0.29516099  0.27466402    -0.40200
O1760       O  0.74888991  0.27860645  0.31726271    -0.40100
O1761       O  0.63113388  0.14638471  0.30536726    -0.40800
O1762       O  0.61871714  0.16200846  0.35691530    -0.40900
C1763       C  0.82014840  0.29500898  0.17390286    -0.13200
C1764       C  0.80890257  0.26586670  0.15465595     0.03800
C1765       C  0.82217548  0.23346973  0.16019712    -0.08400
C1766       C  0.84982437  0.23263485  0.17994047    -0.09200
C1767       C  0.86444032  0.26349145  0.19373917    -0.03700
C1768       C  0.84776928  0.29390823  0.19417678     0.03100
N1769       N  0.85949848  0.32468298  0.21240303     0.65600
H1770       H  0.80937107  0.31943265  0.17047725     0.14500
H1771       H  0.86157777  0.20875252  0.18062021     0.14200
N1772       N  0.81163382  0.20291832  0.14080654     0.73300
O1773       O  0.87229028  0.35021523  0.19541881    -0.40200
O1774       O  0.84885811  0.33010593  0.24186339    -0.40100
O1775       O  0.82465894  0.19700131  0.11281817    -0.40800
O1776       O  0.79558465  0.17826133  0.15567841    -0.40900
C1777       C  0.88754052  0.11067096  0.51507382    -0.13200
C1778       C  0.87665478  0.09071367  0.48634462     0.03800
C1779       C  0.85702111  0.10500726  0.46041258    -0.08400
C1780       C  0.84663179  0.13808979  0.46505944    -0.09200
C1781       C  0.85621610  0.15717273  0.49487401    -0.03700
C1782       C  0.87710468  0.14363369  0.51981535     0.03100
N1783       N  0.88698199  0.16246776  0.55062939     0.65600
H1784       H  0.90487980  0.10100560  0.53323523     0.14500
H1785       H  0.82981104  0.14809883  0.44634757     0.14200
N1786       N  0.84688714  0.08596109  0.42978773     0.73300
O1787       O  0.87119479  0.15797063  0.57767380    -0.40200
O1788       O  0.91451717  0.17670090  0.55322559    -0.40100
O1789       O  0.82026316  0.06935040  0.92868722    -0.40800
O1790       O  0.86079328  0.09256001  0.40172080    -0.40900
C1791       C  0.65217359  0.38312296  0.03632883    -0.13200
C1792       C  0.64222734  0.36285000  0.00739050     0.03800
C1793       C  0.62045309  0.37522683  0.98274134    -0.08400
C1794       C  0.61040208  0.40870426  0.98593045    -0.09200
C1795       C  0.62095716  0.42941919  0.01432368    -0.03700
C1796       C  0.64091109  0.41592753  0.04051843     0.03100
N1797       N  0.64989276  0.43519876  0.07137435     0.65600
H1798       H  0.66939630  0.37396521  0.05500111     0.14500
H1799       H  0.59342320  0.41794393  0.96702365     0.14200
N1800       N  0.60846787  0.35405936  0.95427373     0.73300
O1801       O  0.63537193  0.42825606  0.09899699    -0.40200
O1802       O  0.67593943  0.45301447  0.07313477    -0.40100
O1803       O  0.58128732  0.33891406  0.95544823    -0.40800
O1804       O  0.62226474  0.35593091  0.92576562    -0.40900
C1805       C  0.59373789  0.99047636  0.30523198    -0.13200
C1806       C  0.61606227  0.96818189  0.31828199     0.03800
C1807       C  0.61194133  0.45103500  0.35075831    -0.08400
C1808       C  0.58878997  0.46069423  0.37198439    -0.09200
C1809       C  0.56930339  0.48650438  0.36078677    -0.03700
C1810       C  0.57013992  0.99972541  0.32642404     0.03100
N1811       N  0.54945519  0.02492024  0.31356361     0.65600
H1812       H  0.59602869  0.00299579  0.27981209     0.14500
H1813       H  0.58719924  0.44946199  0.39806044     0.14200
N1814       N  0.63163113  0.42480018  0.36348126     0.73300
O1815       O  0.55820987  0.05712268  0.31551103    -0.40200
O1816       O  0.52776122  0.51573955  0.29191537    -0.40100
O1817       O  0.65136141  0.93213522  0.38844184    -0.40800
O1818       O  0.62337307  0.39308684  0.35730964    -0.40900
C1819       C  0.89462852  0.56782948  0.17132074    -0.13200
C1820       C  0.89114351  0.54241422  0.19803302     0.03800
C1821       C  0.91197143  0.51575859  0.20131864    -0.08400
C1822       C  0.93238893  0.01164930  0.17461111    -0.09200
C1823       C  0.93220954  0.03434470  0.14543187    -0.03700
C1824       C  0.91496113  0.06386737  0.14514491     0.03100
N1825       N  0.91452114  0.08757494  0.11593280     0.65600
H1826       H  0.87948610  0.58906130  0.16924026     0.14500
H1827       H  0.94633791  0.98937994  0.17512236     0.14200
N1828       N  0.91014116  0.49008849  0.22899102     0.73300
O1829       O  0.89115904  0.58201253  0.09265578    -0.40200
O1830       O  0.92979195  0.11708391  0.11821581    -0.40100
O1831       O  0.89558389  0.46062601  0.22345030    -0.40800
O1832       O  0.92887098  0.99158366  0.25423307    -0.40900
C1833       C  0.99596466  0.30598003  0.07398255    -0.13200
C1834       C  0.52608675  0.30959350  0.08955690     0.03800
C1835       C  0.55031043  0.32828625  0.07170002    -0.08400
C1836       C  0.54242751  0.34930125  0.04295094    -0.09200
C1837       C  0.01074852  0.35368016  0.03476238    -0.03700
C1838       C  0.98817180  0.32752845  0.04571823     0.03100
N1839       N  0.95631879  0.32669896  0.03316281     0.65600
H1840       H  0.97757769  0.28962644  0.08624174     0.14500
H1841       H  0.56042631  0.36739248  0.03221651     0.14400
N1842       N  0.58227312  0.32858938  0.08365984     0.73300
O1843       O  0.94673159  0.30454998  0.01045171    -0.40200
O1844       O  0.93660120  0.34046470  0.05094602    -0.40100
O1845       O  0.59935419  0.30756080  0.07027530    -0.40800
O1846       O  0.59513086  0.35602361  0.09734365    -0.40900
C1847       C  0.50020153  0.20857860  0.42663319    -0.13200
C1848       C  0.97218634  0.20145565  0.40708388     0.03800
C1849       C  0.94628408  0.18426794  0.42311814    -0.08400
C1850       C  0.95107533  0.16782911  0.45565285    -0.09200
C1851       C  0.48205022  0.16505947  0.46852154    -0.03700
C1852       C  0.50497678  0.19116071  0.45840724     0.03100
N1853       N  0.53514029  0.19519733  0.47572416     0.65600
H1854       H  0.51931991  0.22447731  0.41574626     0.14500
H1855       H  0.93245786  0.15058981  0.46562669     0.14200
N1856       N  0.91606840  0.18084067  0.40591357     0.73300
O1857       O  0.55755595  0.18070989  0.46334334    -0.40200
O1858       O  0.54115331  0.22075901  0.49580454    -0.40100
O1859       O  0.90773919  0.15334469  0.38932676    -0.40800
O1860       O  0.89551235  0.20038255  0.41467294    -0.40900
C1861       C  0.90592304  0.35550336  0.84157304     0.85600
C1862       C  0.92284132  0.38172081  0.86718631    -0.54600
C1863       C  0.90449213  0.39878740  0.88842779     0.08500
C1864       C  0.86840560  0.38810159  0.88128887     0.19500
C1865       C  0.88445207  0.33071659  0.86577915    -0.55400
C1866       C  0.86416539  0.34706327  0.88655131     0.08600
C1867       C  0.88202923  0.37794022  0.82094027    -0.54900
C1868       C  0.86197361  0.39516003  0.84096015     0.09200
H1869       H  0.94817042  0.38645859  0.86844376     0.13700
H1870       H  0.85312359  0.40217801  0.89791632    -0.00500
H1871       H  0.88497043  0.30241112  0.86577517     0.14000
H1872       H  0.88130008  0.38018925  0.79263174     0.13800
C1873       C  0.64644880  0.11268849  0.66196777     0.85600
C1874       C  0.62361705  0.13317560  0.68284274    -0.54600
C1875       C  0.60279560  0.15271748  0.66354391     0.08500
C1876       C  0.60879820  0.15079154  0.62250278     0.19500
C1877       C  0.62408761  0.09138615  0.63589121    -0.55400
C1878       C  0.60412883  0.11030864  0.61510517     0.08600
C1879       C  0.66332843  0.14104343  0.63859725    -0.54900
C1880       C  0.64526702  0.16127650  0.61679395     0.09200
H1881       H  0.62295454  0.13063192  0.71108850     0.13700
H1882       H  0.59296010  0.16633208  0.60593044    -0.00500
H1883       H  0.62376029  0.06305696  0.63443268     0.14000
H1884       H  0.68869381  0.14368898  0.63847743     0.13800
N1885       N  0.54431178  0.52269181  0.93652417    -0.07000
N1886       N  0.56733466  0.51531091  0.91703080    -0.59100
N1887       N  0.99177436  0.07669342  0.95479142    -0.06700
N1888       N  0.97418807  0.10317192  0.95320197    -0.61300
N1889       N  0.51842227  0.08563640  0.97197744    -0.06300
N1890       N  0.51925702  0.11859762  0.98192054    -0.59100
N1891       N  0.51725783  0.51404671  0.92007936    -0.06000
N1892       N  0.52134826  0.50122056  0.88907224    -0.61600
C1893       C  0.55267192  0.50244775  0.88765375     0.95200
C1894       C  0.49118789  0.12893993  0.97034664     0.94900
N1895       N  0.92018851  0.01812573  0.99328711    -0.07200
N1896       N  0.89649348  0.03382191  0.50499818    -0.59700
N1897       N  0.95112947  0.46836152  0.93314452    -0.05300
N1898       N  0.93987392  0.45362301  0.90362380    -0.61000
N1899       N  0.93935758  0.45087324  0.96023825    -0.07200
N1900       N  0.91983123  0.42398524  0.94935249    -0.60000
N1901       N  0.92985249  0.03365874  0.96444200    -0.05000
N1902       N  0.91289241  0.05953777  0.95520692    -0.61000
Mn1903     Mn  0.97308574  0.02308002  0.94194756     1.18400
C1904       C  0.89197610  0.05917235  0.98029724     0.97300
C1905       C  0.92016622  0.42585118  0.91374226     0.97900
N1906       N  0.55706039  0.06938555  0.54376784    -0.07200
N1907       N  0.57751228  0.09538283  0.55490771    -0.63600
N1908       N  0.56685093  0.48547463  0.53735296    -0.06000
N1909       N  0.58361260  0.45916181  0.54559033    -0.64200
N1910       N  0.57663804  0.50212585  0.00910416    -0.06700
N1911       N  0.60017598  0.48657801  0.99668041    -0.63800
N1912       N  0.54689926  0.05034361  0.57065626    -0.05600
N1913       N  0.56067073  0.06273604  0.60013079    -0.64500
Mn1914     Mn  0.54992515  0.04602906  0.98944641     1.10700
C1915       C  0.57925772  0.09160818  0.59047087     0.98500
C1916       C  0.60453820  0.46032417  0.52045730     0.98500
N1917       N  0.97699247  0.43466454  0.53197677    -0.06800
N1918       N  0.97477978  0.40147932  0.52256714    -0.62100
N1919       N  0.98053174  0.00745699  0.58227435    -0.06100
N1920       N  0.97781468  0.02204093  0.61263247    -0.58900
N1921       N  0.95293592  0.00026326  0.56644357    -0.07400
N1922       N  0.93083443  0.01045411  0.58595469    -0.61700
N1923       N  0.00429301  0.44290215  0.54810873    -0.06400
N1924       N  0.52096381  0.41550396  0.54952839    -0.58900
Mn1925     Mn  0.94645809  0.47496922  0.51411356     1.20200
Mn1926     Mn  0.52412862  0.49621622  0.56062884     1.10100
Cl1927     Cl  0.99842868  0.01001996  0.00154937    -0.86900
C1928       C  0.00262191  0.39014301  0.53345445     0.95500
C1929       C  0.94688110  0.02417860  0.61423995     0.95300
N1930       N  0.79749845  0.20598777  0.02177268    -0.07000
N1931       N  0.80914768  0.17570285  0.01859007    -0.59100
N1932       N  0.79149708  0.27546395  0.56728733    -0.06700
N1933       N  0.80484028  0.28996886  0.59559537    -0.61300
N1934       N  0.77103092  0.24971364  0.57664330    -0.06300
N1935       N  0.76993700  0.24656394  0.61070458    -0.59100
N1936       N  0.81694648  0.23174548  0.01009127    -0.06000
N1937       N  0.84240606  0.21910649  0.99875080    -0.61600
C1938       C  0.83685755  0.18420518  0.00456732     0.95200
C1939       C  0.79114782  0.27161363  0.62237439     0.94900
N1940       N  0.76730180  0.34914231  0.49287622    -0.07200
N1941       N  0.76092218  0.38158981  0.49922910    -0.59700
N1942       N  0.81805125  0.30041897  0.95517924    -0.05300
N1943       N  0.84588657  0.31061492  0.94190961    -0.61000
N1944       N  0.79545911  0.31030680  0.93371821    -0.07200
N1945       N  0.80777963  0.32758111  0.90606868    -0.60000
N1946       N  0.78979459  0.33948219  0.51421066    -0.05000
N1947       N  0.79940754  0.36498836  0.53550334    -0.61000
Mn1948     Mn  0.80517022  0.28642529  0.51200424     1.18400
C1949       C  0.78136833  0.39128787  0.52587520     0.97300
C1950       C  0.83953953  0.32721384  0.91060618     0.97900
N1951       N  0.70388198  0.21068159  0.56460774    -0.07200
N1952       N  0.69491772  0.19286192  0.59311274    -0.63600
N1953       N  0.70851561  0.17962077  0.98380237    -0.06000
N1954       N  0.70002120  0.15309955  0.96312042    -0.64200
N1955       N  0.73129642  0.17154004  0.00544725    -0.06700
N1956       N  0.73896356  0.13946709  0.00034764    -0.63800
N1957       N  0.67952586  0.21665727  0.54405288    -0.05600
N1958       N  0.65343680  0.20171479  0.55882722    -0.64500
Mn1959     Mn  0.75132714  0.21002477  0.54244562     1.10700
C1960       C  0.66323706  0.18727608  0.59044437     0.98500
C1961       C  0.71915720  0.12804402  0.97396571     0.98500
N1962       N  0.72509261  0.27054518  0.92031905    -0.06800
N1963       N  0.72854763  0.26893766  0.88631014    -0.62100
N1964       N  0.68089266  0.28808965  0.48909026    -0.06100
N1965       N  0.65612457  0.30075214  0.50223083    -0.58900
N1966       N  0.70007445  0.31414929  0.47704699    -0.07400
N1967       N  0.68887109  0.34441791  0.48206798    -0.61700
N1968       N  0.70638708  0.24373109  0.93149114    -0.06400
N1969       N  0.69766561  0.22328448  0.90513756    -0.58900
Mn1970     Mn  0.74631497  0.31118600  0.95479424     1.20200
Mn1971     Mn  0.69226105  0.23255651  0.98659700     1.10100
Cl1972     Cl  0.74867713  0.26023362  0.49859636    -0.86900
C1973       C  0.71173574  0.23896796  0.87723533     0.95500
C1974       C  0.66181541  0.33582950  0.49751747     0.95300
N1975       N  0.94495337  0.25156775  0.69595533    -0.07000
N1976       N  0.91587648  0.23861678  0.69028251    -0.59100
N1977       N  0.00981209  0.29962620  0.67702102    -0.06700
N1978       N  0.52045639  0.32091002  0.65175537    -0.61300
N1979       N  0.01078271  0.26697581  0.66700921    -0.06300
N1980       N  0.52203687  0.26559113  0.63567861    -0.59100
N1981       N  0.94491993  0.28372338  0.70761318    -0.06000
N1982       N  0.91629043  0.29306246  0.71016842    -0.61600
C1983       C  0.89838994  0.26458748  0.69960653     0.95200
C1984       C  0.52861439  0.29932189  0.62643008     0.94900
N1985       N  0.54068848  0.32874213  0.77865738    -0.07200
N1986       N  0.57067564  0.33704415  0.78308918    -0.59700
N1987       N  0.96109854  0.32434655  0.77751942    -0.05300
N1988       N  0.93488533  0.33993383  0.78366924    -0.61000
N1989       N  0.97336537  0.31313197  0.80731946    -0.07200
N1990       N  0.95581764  0.32080211  0.83379451    -0.60000
N1991       N  0.53075810  0.33775651  0.74714054    -0.05000
N1992       N  0.55454474  0.35138537  0.72903707    -0.61000
Mn1993     Mn  0.98637282  0.31300371  0.72655107     1.18400
C1994       C  0.57922514  0.35095820  0.75218963     0.97300
C1995       C  0.93128633  0.33760507  0.81926694     0.97900
N1996       N  0.53301936  0.19383141  0.69266892    -0.07200
N1997       N  0.55098018  0.18558028  0.66657575    -0.63600
N1998       N  0.97645948  0.16936954  0.75393641    -0.06000
N1999       N  0.95461823  0.15494668  0.77417820    -0.64200
N2000       N  0.96402409  0.17989229  0.72404635    -0.06700
N2001       N  0.93338873  0.17289702  0.72362127    -0.63800
N2002       N  0.54506828  0.18339635  0.72287222    -0.05600
N2003       N  0.57137839  0.16798024  0.71761020    -0.64500
Mn2004     Mn  0.98806190  0.22249590  0.69364416     1.10700
C2005       C  0.57539775  0.16923349  0.68216273     0.98500
C2006       C  0.92786958  0.15706017  0.75485568     0.98500
N2007       N  0.49539763  0.24128324  0.83181756    -0.06800
N2008       N  0.98114750  0.24361471  0.86112168    -0.62100
N2009       N  0.56153712  0.22373629  0.79258587    -0.06100
N2010       N  0.58915669  0.21153232  0.79225330    -0.58900
N2011       N  0.56300437  0.25592188  0.80455125    -0.07400
N2012       N  0.59279900  0.26601654  0.81259565    -0.61700
N2013       N  0.49618472  0.20854180  0.82237789    -0.06400
N2014       N  0.98267211  0.18786302  0.84640340    -0.58900
Mn2015     Mn  0.51845772  0.28524139  0.80665570     1.20200
Mn2016     Mn  0.52015875  0.19502227  0.77346813     1.10100
Cl2017     Cl  0.00355354  0.25417760  0.74988194    -0.86900
C2018       C  0.97290030  0.21029514  0.87009159     0.95500
C2019       C  0.60857320  0.23778650  0.80460402     0.95300
N2020       N  0.79368056  0.43851040  0.80578501    -0.07000
N2021       N  0.80619164  0.40949893  0.81813588    -0.59100
N2022       N  0.77174125  0.01049580  0.84339390    -0.06700
N2023       N  0.76999615  0.03167956  0.86959970    -0.61300
N2024       N  0.74890685  0.98568006  0.84344122    -0.06300
N2025       N  0.73040200  0.98979351  0.86963031    -0.59100
N2026       N  0.81539940  0.46478414  0.80530459    -0.06000
N2027       N  0.84283855  0.45404707  0.81717148    -0.61600
C2028       C  0.83727482  0.41913822  0.82489396     0.95200
C2029       C  0.74446636  0.01826059  0.88601402     0.94900
N2030       N  0.77539601  0.08908356  0.76398228    -0.07200
N2031       N  0.78732914  0.12210132  0.76329358    -0.59700
N2032       N  0.82638283  0.53052557  0.75147429    -0.05300
N2033       N  0.85648647  0.52721391  0.74801776    -0.61000
N2034       N  0.81390196  0.54465252  0.72298764    -0.07200
N2035       N  0.83532653  0.55133623  0.69979737    -0.60000
N2036       N  0.78460607  0.07396235  0.79367051    -0.05000
N2037       N  0.79979885  0.09729389  0.81391601    -0.61000
Mn2038     Mn  0.79989491  0.01988693  0.79829844     1.18400
C2039       C  0.80351363  0.12677319  0.79427279     0.97300
C2040       C  0.86157959  0.54053031  0.71567639     0.97900
N2041       N  0.69315042  0.96453953  0.79198792    -0.07200
N2042       N  0.67216697  0.95810863  0.81588343    -0.63600
N2043       N  0.71972415  0.43372520  0.72218584    -0.06000
N2044       N  0.70287081  0.40822789  0.70611101    -0.64200
N2045       N  0.73426901  0.42082254  0.75016062    -0.06700
N2046       N  0.72738950  0.38669772  0.75252199    -0.63800
N2047       N  0.68006646  0.97806771  0.76352320    -0.05600
N2048       N  0.64995866  0.98046852  0.76749914    -0.64500
Mn2049     Mn  0.74252452  0.45158832  0.79772454     1.10700
C2050       C  0.64539806  0.96756961  0.80018211     0.98500
C2051       C  0.70632316  0.37924031  0.72615272     0.98500
N2052       N  0.75789990  0.52267319  0.67092696    -0.06800
N2053       N  0.77563472  0.51958470  0.64382426    -0.62100
N2054       N  0.69133119  0.04442976  0.70760946    -0.06100
N2055       N  0.66442042  0.05489842  0.69356263    -0.58900
N2056       N  0.71322221  0.07069379  0.70717796    -0.07400
N2057       N  0.70111361  0.09908577  0.69257815    -0.61700
N2058       N  0.73530810  0.49741681  0.67118766    -0.06400
N2059       N  0.73669289  0.47689933  0.64429334    -0.58900
Mn2060     Mn  0.76494812  0.05783938  0.71624826     1.20200
Mn2061     Mn  0.70604115  0.48846990  0.71604252     1.10100
Cl2062     Cl  0.75316641  0.00464436  0.75702648    -0.86900
C2063       C  0.76167770  0.49115669  0.62731532     0.95500
C2064       C  0.67006400  0.08962719  0.68466292     0.95300
C2065       C  0.85979220  0.12561089  0.80990233    -0.13200
C2066       C  0.83560836  0.14460625  0.79461570     0.03800
C2067       C  0.84385068  0.17249902  0.77139134    -0.08400
C2068       C  0.87439779  0.17685183  0.75938479    -0.09200
C2069       C  0.89680076  0.15350299  0.77012850    -0.03700
C2070       C  0.88973192  0.12877623  0.79686101     0.03100
N2071       N  0.91111598  0.10350352  0.80779586     0.65600
H2072       H  0.85481699  0.10474922  0.82871767     0.14500
H2073       H  0.88032937  0.19779958  0.74121059     0.14200
N2074       N  0.82163780  0.19654356  0.75985371     0.73300
O2075       O  0.92412443  0.10534559  0.83789944    -0.40200
O2076       O  0.91069357  0.07519860  0.79143821    -0.40100
O2077       O  0.82324874  0.22667137  0.77286857    -0.40800
O2078       O  0.80557443  0.19087525  0.73197147    -0.40900
C2079       C  0.63370785  0.35687831  0.77231826    -0.13200
C2080       C  0.61235801  0.35389536  0.74390060     0.03800
C2081       C  0.62326256  0.34846510  0.71048042    -0.08400
C2082       C  0.65555876  0.35093545  0.70548034    -0.09200
C2083       C  0.67707282  0.35801944  0.73371304    -0.03700
C2084       C  0.66559642  0.35778552  0.76805318     0.03100
N2085       N  0.68537821  0.36167592  0.79905227     0.65600
H2086       H  0.62565554  0.35901978  0.79851895     0.14500
H2087       H  0.66378769  0.35041769  0.67908110     0.14200
N2088       N  0.60195449  0.34067446  0.68163724     0.73300
O2089       O  0.69339543  0.39209661  0.80972030    -0.40200
O2090       O  0.68472432  0.33686501  0.82129412    -0.40100
O2091       O  0.58889394  0.36533568  0.66612940    -0.40800
O2092       O  0.59093699  0.30942498  0.67722024    -0.40900
C2093       C  0.75480641  0.47329752  0.56610194    -0.13200
C2094       C  0.77340543  0.47430444  0.59701841     0.03800
C2095       C  0.79806898  0.45229833  0.60104620    -0.08400
C2096       C  0.80188083  0.42753170  0.57564950    -0.09200
C2097       C  0.78107346  0.42368850  0.54640930    -0.03700
C2098       C  0.75858819  0.44846896  0.54058394     0.03100
N2099       N  0.73841725  0.44799316  0.50997447     0.65600
H2100       H  0.73592479  0.49025256  0.56281168     0.14500
H2101       H  0.81980789  0.40956530  0.58035838     0.14200
N2102       N  0.81715671  0.45179697  0.63248515     0.73300
O2103       O  0.71191087  0.43121177  0.51066683    -0.40200
O2104       O  0.74339879  0.47116756  0.48648603    -0.40100
O2105       O  0.81043173  0.42891108  0.65581131    -0.40800
O2106       O  0.84444764  0.46679566  0.63254440    -0.40900
C2107       C  0.70189435  0.08756251  0.92600177    -0.13200
C2108       C  0.72095946  0.09434854  0.95615774     0.03800
C2109       C  0.74327799  0.07037954  0.96642310    -0.08400
C2110       C  0.74849083  0.04298389  0.94443123    -0.09200
C2111       C  0.73103578  0.03799965  0.91310518    -0.03700
C2112       C  0.70668689  0.05954895  0.90455235     0.03100
N2113       N  0.68881637  0.05570088  0.87238149     0.65600
H2114       H  0.68441338  0.10512851  0.91784952     0.14500
H2115       H  0.76750173  0.02683046  0.95084458     0.14200
N2116       N  0.76160675  0.07385080  0.99834724     0.73300
O2117       O  0.66159040  0.04056631  0.87263722    -0.40200
O2118       O  0.69686328  0.07441808  0.84620907    -0.40100
O2119       O  0.75302671  0.05576101  0.02471491    -0.40800
O2120       O  0.78949865  0.08701596  0.99761783    -0.40900
C2121       C  0.66508059  0.25998979  0.80469479    -0.13200
C2122       C  0.64197041  0.23312532  0.81202524     0.03800
C2123       C  0.65167587  0.20054651  0.82507387    -0.08400
C2124       C  0.68208187  0.19888361  0.83873632    -0.09200
C2125       C  0.70171897  0.22964979  0.84119973    -0.03700
C2126       C  0.69614114  0.25697738  0.81708291     0.03100
N2127       N  0.72159777  0.27962045  0.80384473     0.65600
H2128       H  0.65895749  0.28265802  0.78900920     0.14500
H2129       H  0.68776384  0.17570672  0.85380575     0.14200
N2130       N  0.63054144  0.16988709  0.82785820     0.73300
O2131       O  0.71819984  0.29517991  0.77467054    -0.40200
O2132       O  0.74888444  0.27862244  0.81726240    -0.40100
O2133       O  0.63114144  0.14638928  0.80535303    -0.40800
O2134       O  0.61873501  0.16199033  0.85691272    -0.40900
C2135       C  0.82015106  0.29499007  0.67391194    -0.13200
C2136       C  0.80890753  0.26585897  0.65464770     0.03800
C2137       C  0.82217877  0.23345894  0.66017253    -0.08400
C2138       C  0.84982348  0.23261150  0.67992139    -0.09200
C2139       C  0.86443699  0.26345925  0.69374173    -0.03700
C2140       C  0.84776687  0.29387593  0.69419262     0.03100
N2141       N  0.85949148  0.32463780  0.71244270     0.65600
H2142       H  0.80937459  0.31941498  0.67049890     0.14500
H2143       H  0.86157575  0.20872915  0.68058979     0.14200
N2144       N  0.81163866  0.20291896  0.64076368     0.73300
O2145       O  0.87229957  0.35017621  0.69548116    -0.40200
O2146       O  0.84883428  0.33004718  0.74189774    -0.40100
O2147       O  0.82466937  0.19701551  0.61277527    -0.40800
O2148       O  0.79558228  0.17825641  0.65561822    -0.40900
C2149       C  0.88754248  0.11066752  0.01506702    -0.13200
C2150       C  0.87665783  0.09071337  0.98633538     0.03800
C2151       C  0.85702841  0.10501008  0.96040131    -0.08400
C2152       C  0.84664623  0.13809597  0.96504529    -0.09200
C2153       C  0.85622856  0.15717549  0.99486236    -0.03700
C2154       C  0.87710957  0.14363115  0.01980859     0.03100
N2155       N  0.88697432  0.16245647  0.05063192     0.65600
H2156       H  0.90487666  0.10099721  0.03323229     0.14500
H2157       H  0.82982791  0.14810812  0.94633169     0.14200
N2158       N  0.84688441  0.08595945  0.92978238     0.73300
O2159       O  0.87117305  0.15795551  0.07766557    -0.40200
O2160       O  0.91450896  0.17668849  0.05324649    -0.40100
O2161       O  0.82025923  0.06936751  0.42867222    -0.40800
O2162       O  0.86077041  0.09256606  0.90170406    -0.40900
C2163       C  0.65214856  0.38311756  0.53631868    -0.13200
C2164       C  0.64221110  0.36285729  0.50736881     0.03800
C2165       C  0.62045142  0.37525032  0.48271172    -0.08400
C2166       C  0.61040757  0.40873084  0.48590527    -0.09200
C2167       C  0.62095537  0.42943381  0.51430973    -0.03700
C2168       C  0.64089372  0.41592589  0.54051105     0.03100
N2169       N  0.64986857  0.43518535  0.57137609     0.65600
H2170       H  0.66936000  0.37394794  0.55499739     0.14500
H2171       H  0.59343950  0.41798202  0.46699266     0.14200
N2172       N  0.60847126  0.35409472  0.45423331     0.73300
O2173       O  0.63532902  0.42824675  0.59898688    -0.40200
O2174       O  0.67592328  0.45298352  0.57315765    -0.40100
O2175       O  0.58127951  0.33897430  0.45538227    -0.40800
O2176       O  0.62229053  0.35595304  0.42573942    -0.40900
C2177       C  0.59373451  0.99046484  0.80522208    -0.13200
C2178       C  0.61605365  0.96815997  0.81826374     0.03800
C2179       C  0.61193711  0.45100555  0.85077866    -0.08400
C2180       C  0.58878373  0.46066059  0.87200391    -0.09200
C2181       C  0.56928367  0.48645492  0.86079883    -0.03700
C2182       C  0.57014167  0.99971679  0.82642012     0.03100
N2183       N  0.54945909  0.02491660  0.81356628     0.65600
H2184       H  0.59602549  0.00298832  0.77980461     0.14500
H2185       H  0.58720352  0.44944057  0.89808607     0.14200
N2186       N  0.63164405  0.42479160  0.86351257     0.73300
O2187       O  0.55821992  0.05711764  0.81551101    -0.40200
O2188       O  0.52770187  0.51562100  0.79193170    -0.40100
O2189       O  0.65134809  0.93207155  0.88840266    -0.40800
O2190       O  0.62340828  0.39307158  0.85734827    -0.40900
C2191       C  0.89456979  0.56781588  0.67126407    -0.13200
C2192       C  0.89112972  0.54243334  0.69801316     0.03800
C2193       C  0.91200329  0.51582470  0.70132955    -0.08400
C2194       C  0.93240231  0.01167685  0.67461659    -0.09200
C2195       C  0.93221037  0.03435924  0.64542768    -0.03700
C2196       C  0.91494882  0.06387197  0.64513016     0.03100
N2197       N  0.91449577  0.08756712  0.61590869     0.65600
H2198       H  0.87939560  0.58901694  0.66915828     0.14500
H2199       H  0.94636123  0.98941604  0.67513616     0.14200
N2200       N  0.91022422  0.49019284  0.72903900     0.73300
O2201       O  0.89101575  0.58187504  0.59259217    -0.40200
O2202       O  0.92976462  0.11707865  0.61817410    -0.40100
O2203       O  0.89571302  0.46069643  0.72354385    -0.40800
O2204       O  0.92890642  0.99164346  0.75424397    -0.40900
C2205       C  0.99597464  0.30596622  0.57399525    -0.13200
C2206       C  0.52608563  0.30956504  0.58957192     0.03800
C2207       C  0.55031375  0.32826618  0.57173032    -0.08400
C2208       C  0.54243812  0.34930112  0.54299406    -0.09200
C2209       C  0.01076494  0.35368885  0.53480287    -0.03700
C2210       C  0.98818357  0.32753596  0.54574710     0.03100
N2211       N  0.95632824  0.32672602  0.53320268     0.65600
H2212       H  0.97758528  0.28960941  0.58624677     0.14500
H2213       H  0.56044092  0.36739632  0.53227258     0.14400
N2214       N  0.58227412  0.32855793  0.58369622     0.73300
O2215       O  0.94672613  0.30458942  0.51048570    -0.40200
O2216       O  0.93662219  0.34049543  0.55099916    -0.40100
O2217       O  0.59935352  0.30752999  0.57030799    -0.40800
O2218       O  0.59513437  0.35598386  0.59739346    -0.40900
C2219       C  0.50017618  0.20858835  0.92664180    -0.13200
C2220       C  0.97215968  0.20143772  0.90708168     0.03800
C2221       C  0.94626361  0.18424248  0.92312089    -0.08400
C2222       C  0.95106308  0.16781448  0.95565930    -0.09200
C2223       C  0.48204373  0.16505276  0.96852223    -0.03700
C2224       C  0.50496174  0.19116477  0.95841036     0.03100
N2225       N  0.53513118  0.19519896  0.97571356     0.65600
H2226       H  0.51929037  0.22449608  0.91575428     0.14500
H2227       H  0.93245006  0.15056891  0.96563851     0.14200
N2228       N  0.91604977  0.18078866  0.90591426     0.73300
O2229       O  0.55754429  0.18072597  0.96330942    -0.40200
O2230       O  0.54114796  0.22075015  0.99580617    -0.40100
O2231       O  0.90773412  0.15327734  0.88934687    -0.40800
O2232       O  0.89548253  0.20032307  0.91465834    -0.40900
C2233       C  0.90600379  0.85550398  0.34179126     0.85600
C2234       C  0.92290612  0.88173147  0.36740749    -0.54600
C2235       C  0.90454140  0.89879955  0.38863355     0.08500
C2236       C  0.86845878  0.88810957  0.38147272     0.19500
C2237       C  0.88452512  0.83072319  0.36599263    -0.55400
C2238       C  0.86422550  0.84707480  0.38674353     0.08600
C2239       C  0.88210917  0.87793450  0.32113902    -0.54900
C2240       C  0.86203638  0.89515673  0.34114005     0.09200
H2241       H  0.94823505  0.88647174  0.36868094     0.13700
H2242       H  0.85316694  0.90218513  0.39808914    -0.00500
H2243       H  0.88504637  0.80241784  0.36599968     0.14000
H2244       H  0.88138986  0.88017262  0.29283023     0.13800
C2245       C  0.64642177  0.61263484  0.16184085     0.85600
C2246       C  0.62359877  0.63309346  0.18274673    -0.54600
C2247       C  0.60277946  0.65265807  0.16347936     0.08500
C2248       C  0.60876397  0.65076450  0.12242727     0.19500
C2249       C  0.62406469  0.59135057  0.13574741    -0.55400
C2250       C  0.60409806  0.61028292  0.11498336     0.08600
C2251       C  0.66329572  0.64101032  0.13850220    -0.54900
C2252       C  0.64523215  0.66125969  0.11672620     0.09200
H2253       H  0.62295355  0.63053169  0.21099226     0.13700
H2254       H  0.59292422  0.66632249  0.10587577    -0.00500
H2255       H  0.62374945  0.56302475  0.13425811     0.14000
H2256       H  0.68866121  0.64365957  0.13838461     0.13800
N2257       N  0.54428422  0.02273664  0.43669579    -0.07000
N2258       N  0.56730748  0.01538558  0.41718929    -0.59100
N2259       N  0.99179065  0.57665427  0.45461865    -0.06700
N2260       N  0.97417020  0.60310419  0.45309259    -0.61300
N2261       N  0.51842544  0.58560562  0.47182306    -0.06300
N2262       N  0.51921256  0.61853405  0.48185679    -0.59100
N2263       N  0.51723091  0.01408844  0.42025312    -0.06000
N2264       N  0.52132328  0.00128505  0.38923445    -0.61600
C2265       C  0.55264844  0.00253376  0.38780456     0.95200
C2266       C  0.49112861  0.62885618  0.47031317     0.94900
N2267       N  0.92025404  0.51808774  0.49313184    -0.07200
N2268       N  0.89663090  0.53387384  0.00492476    -0.59700
N2269       N  0.95112411  0.96839965  0.43336625    -0.05300
N2270       N  0.93989819  0.95364341  0.40384408    -0.61000
N2271       N  0.93933932  0.95092033  0.46046014    -0.07200
N2272       N  0.91983083  0.92401864  0.44956808    -0.60000
N2273       N  0.92989590  0.53361514  0.46427378    -0.05000
N2274       N  0.91300037  0.55957038  0.45511526    -0.61000
Mn2275     Mn  0.97311618  0.52303834  0.44175812     1.18400
C2276       C  0.89215170  0.55926280  0.48026834     0.97300
C2277       C  0.92019423  0.92586862  0.41395675     0.97900
N2278       N  0.55707378  0.56934186  0.04360768    -0.07200
N2279       N  0.57750707  0.59535250  0.05476223    -0.63600
N2280       N  0.56680443  0.98547998  0.03755079    -0.06000
N2281       N  0.58353225  0.95913244  0.04577304    -0.64200
N2282       N  0.57659627  0.00213779  0.50928811    -0.06700
N2283       N  0.60009995  0.98654685  0.49684137    -0.63800
N2284       N  0.54690878  0.55028825  0.07048850    -0.05600
N2285       N  0.56066029  0.56268963  0.09997096    -0.64500
Mn2286     Mn  0.54994532  0.54601596  0.48927403     1.10700
C2287       C  0.57923630  0.59157915  0.09032762     0.98500
C2288       C  0.60443869  0.96025433  0.02062068     0.98500
N2289       N  0.97691135  0.93475288  0.03223038    -0.06800
N2290       N  0.97468864  0.90156850  0.02281974    -0.62100
N2291       N  0.98054684  0.50727440  0.08210015    -0.06100
N2292       N  0.97779118  0.52178403  0.11248893    -0.58900
N2293       N  0.95296624  0.50009021  0.06623327    -0.07400
N2294       N  0.93083726  0.51022647  0.08572979    -0.61700
N2295       N  0.00421529  0.94298263  0.04835542    -0.06400
N2296       N  0.52090662  0.91558329  0.04976738    -0.58900
Mn2297     Mn  0.94639876  0.97505465  0.01433202     1.20200
Mn2298     Mn  0.52409478  0.99628641  0.06082506     1.10100
Cl2299     Cl  0.99847171  0.50996576  0.50135733    -0.86900
C2300       C  0.00252727  0.89022365  0.03370224     0.95500
C2301       C  0.94684721  0.52387289  0.11406673     0.95300
N2302       N  0.79752003  0.70596856  0.52182101    -0.07000
N2303       N  0.80916110  0.67568898  0.51854690    -0.59100
N2304       N  0.79149728  0.77542042  0.06740464    -0.06700
N2305       N  0.80485770  0.78991133  0.09570995    -0.61300
N2306       N  0.77106282  0.74963631  0.07675590    -0.06300
N2307       N  0.77002005  0.74643929  0.11082083    -0.59100
N2308       N  0.81696625  0.73175058  0.51018272    -0.06000
N2309       N  0.84241804  0.71913577  0.49879138    -0.61600
C2310       C  0.83686616  0.68422064  0.50451628     0.95200
C2311       C  0.79121420  0.77151182  0.12248869     0.94900
N2312       N  0.76725901  0.84912663  0.99300669    -0.07200
N2313       N  0.76084527  0.88155922  0.99938032    -0.59700
N2314       N  0.81807002  0.80044516  0.45533327    -0.05300
N2315       N  0.84591495  0.81063656  0.44208731    -0.61000
N2316       N  0.79549118  0.81033326  0.43385571    -0.07200
N2317       N  0.80782970  0.82760519  0.40621589    -0.60000
N2318       N  0.78973999  0.83946753  0.01436152    -0.05000
N2319       N  0.79931004  0.86496150  0.03568688    -0.61000
Mn2320     Mn  0.80516273  0.78642168  0.01213725     1.18400
C2321       C  0.78125921  0.89125121  0.02605808     0.97300
C2322       C  0.83958661  0.82723413  0.41077995     0.97900
N2323       N  0.70387942  0.71066967  0.06461845    -0.07200
N2324       N  0.69489118  0.69286246  0.09311821    -0.63600
N2325       N  0.70854438  0.67959767  0.48381934    -0.06000
N2326       N  0.70006971  0.65308230  0.46311750    -0.64200
N2327       N  0.73131650  0.67151361  0.50547503    -0.06700
N2328       N  0.73899462  0.63944503  0.50036193    -0.63800
N2329       N  0.67953492  0.71664879  0.04404443    -0.05600
N2330       N  0.65343287  0.70171555  0.05879420    -0.64500
Mn2331     Mn  0.75134477  0.70998243  0.04249902     1.10700
C2332       C  0.66321129  0.68728244  0.09041873     0.98500
C2333       C  0.71920684  0.62802474  0.47396023     0.98500
N2334       N  0.72515632  0.77053217  0.42037203    -0.06800
N2335       N  0.72864808  0.76890153  0.38637044    -0.62100
N2336       N  0.68087490  0.78806056  0.98907927    -0.06100
N2337       N  0.65607834  0.80070704  0.00217517    -0.58900
N2338       N  0.70005062  0.81413106  0.97704888    -0.07400
N2339       N  0.68881301  0.84439119  0.98202939    -0.61700
N2340       N  0.70645484  0.74371266  0.43153734    -0.06400
N2341       N  0.69777577  0.72323941  0.40519497    -0.58900
Mn2342     Mn  0.74632476  0.81118797  0.45487193     1.20200
Mn2343     Mn  0.69228277  0.73254297  0.48661272     1.10100
Cl2344     Cl  0.74868662  0.76022045  0.99867784    -0.86900
C2345       C  0.71186215  0.73891114  0.37729960     0.95500
C2346       C  0.66173860  0.83578675  0.99743777     0.95300
N2347       N  0.94505412  0.75160342  0.19611886    -0.07000
N2348       N  0.91598038  0.73866516  0.19040661    -0.59100
N2349       N  0.00990885  0.79966762  0.17724448    -0.06700
N2350       N  0.52054716  0.82100083  0.15199610    -0.61300
N2351       N  0.01088643  0.76702890  0.16720274    -0.06300
N2352       N  0.52215802  0.76570427  0.13586792    -0.59100
N2353       N  0.94501772  0.78374266  0.20781766    -0.06000
N2354       N  0.91638779  0.79308355  0.21036261    -0.61600
C2355       C  0.89849164  0.76462634  0.19974664     0.95200
C2356       C  0.52871103  0.79944467  0.12664579     0.94900
N2357       N  0.54077225  0.82868971  0.27891456    -0.07200
N2358       N  0.57076907  0.83693695  0.28333965    -0.59700
N2359       N  0.96118708  0.82431630  0.27775243    -0.05300
N2360       N  0.93498558  0.83992575  0.28390219    -0.61000
N2361       N  0.97344118  0.81307765  0.30754885    -0.07200
N2362       N  0.95589499  0.82075997  0.33402472    -0.60000
N2363       N  0.53084948  0.83772818  0.24740107    -0.05000
N2364       N  0.55464809  0.85131577  0.22929304    -0.61000
Mn2365     Mn  0.98646760  0.81300060  0.22678227     1.18400
C2366       C  0.57932690  0.85083761  0.25243906     0.97300
C2367       C  0.93137666  0.83759230  0.31949733     0.97900
N2368       N  0.53310565  0.69386549  0.19272813    -0.07200
N2369       N  0.55102557  0.68560216  0.16660465    -0.63600
N2370       N  0.97652926  0.66933400  0.25398679    -0.06000
N2371       N  0.95467498  0.65488025  0.27419565    -0.64200
N2372       N  0.96410880  0.67988917  0.22410119    -0.06700
N2373       N  0.93347511  0.67288557  0.22364141    -0.63800
N2374       N  0.54516204  0.68339051  0.22291274    -0.05600
N2375       N  0.57144111  0.66793087  0.21760519    -0.64500
Mn2376     Mn  0.98815068  0.72252681  0.19376788     1.10700
C2377       C  0.57542895  0.66920427  0.18214967     0.98500
C2378       C  0.92793856  0.65700873  0.25485060     0.98500
N2379       N  0.49546493  0.74116030  0.33193616    -0.06800
N2380       N  0.98119063  0.74347730  0.36123030    -0.62100
N2381       N  0.56163447  0.72368500  0.29270279    -0.06100
N2382       N  0.58926439  0.71150194  0.29237383    -0.58900
N2383       N  0.56307974  0.75584991  0.30472319    -0.07400
N2384       N  0.59286580  0.76594954  0.31280822    -0.61700
N2385       N  0.49626993  0.70842999  0.32246406    -0.06400
N2386       N  0.98272740  0.68773907  0.34646735    -0.58900
Mn2387     Mn  0.51852623  0.78515969  0.30685327     1.20200
Mn2388     Mn  0.52025694  0.69496881  0.27353898     1.10100
Cl2389     Cl  0.00363889  0.75414614  0.25004273    -0.86900
C2390       C  0.97293589  0.71015152  0.37016231     0.95500
C2391       C  0.60866099  0.73774755  0.30478516     0.95300
N2392       N  0.79371946  0.93849017  0.30594644    -0.07000
N2393       N  0.80623839  0.90948265  0.31830423    -0.59100
N2394       N  0.77171676  0.51052530  0.34325769    -0.06700
N2395       N  0.77000435  0.53167280  0.36950206    -0.61300
N2396       N  0.74888227  0.48570920  0.34330455    -0.06300
N2397       N  0.73040997  0.48978957  0.36953474    -0.59100
N2398       N  0.81543596  0.96476533  0.30546126    -0.06000
N2399       N  0.84287904  0.95403366  0.31732647    -0.61600
C2400       C  0.83732513  0.91912465  0.32505619     0.95200
C2401       C  0.74449402  0.51823621  0.38594407     0.94900
N2402       N  0.77536548  0.58910986  0.26381395    -0.07200
N2403       N  0.78734160  0.62211294  0.26312211    -0.59700
N2404       N  0.82639544  0.03048716  0.25163973    -0.05300
N2405       N  0.85649018  0.02712449  0.24823374    -0.61000
N2406       N  0.81396116  0.04464762  0.22314185    -0.07200
N2407       N  0.83543055  0.05131834  0.19998714    -0.60000
N2408       N  0.78453013  0.57398946  0.29352050    -0.05000
N2409       N  0.79970094  0.59731848  0.31378452    -0.61000
Mn2410     Mn  0.79987086  0.51993012  0.29815204     1.18400
C2411       C  0.80349324  0.62677641  0.29412355     0.97300
C2412       C  0.86164083  0.04044456  0.21591581     0.97900
N2413       N  0.69314828  0.46454729  0.29180539    -0.07200
N2414       N  0.67216244  0.45811607  0.31569533    -0.63600
N2415       N  0.71969741  0.93372911  0.22237080    -0.06000
N2416       N  0.70283945  0.90821415  0.20632200    -0.64200
N2417       N  0.73428596  0.92083725  0.25032259    -0.06700
N2418       N  0.72744430  0.88670745  0.25268853    -0.63800
N2419       N  0.68006937  0.47805718  0.26332903    -0.05600
N2420       N  0.64995933  0.48045088  0.26729430    -0.64500
Mn2421     Mn  0.74255505  0.95158936  0.29788358     1.10700
C2422       C  0.64539606  0.46756121  0.29998089     0.98500
C2423       C  0.70635779  0.87922523  0.22634597     0.98500
N2424       N  0.75788876  0.02269076  0.17108716    -0.06800
N2425       N  0.77558541  0.01960909  0.14395181    -0.62100
N2426       N  0.69133131  0.54439733  0.20742841    -0.06100
N2427       N  0.66441447  0.55484938  0.19338840    -0.58900
N2428       N  0.71320885  0.57067330  0.20700900    -0.07400
N2429       N  0.70108863  0.59906124  0.19242276    -0.61700
N2430       N  0.73528187  0.99745013  0.17136012    -0.06400
N2431       N  0.73661702  0.97695419  0.14444238    -0.58900
Mn2432     Mn  0.76492805  0.55784875  0.21608851     1.20200
Mn2433     Mn  0.70603565  0.98850108  0.21622784     1.10100
Cl2434     Cl  0.75315747  0.50466174  0.25687070    -0.86900
C2435       C  0.76158486  0.99120775  0.12743490     0.95500
C2436       C  0.67004501  0.58958088  0.18450591     0.95300
C2437       C  0.85976889  0.62532964  0.30964056    -0.13200
C2438       C  0.83563443  0.64448391  0.29448056     0.03800
C2439       C  0.84393777  0.67250093  0.27142730    -0.08400
C2440       C  0.87449837  0.67686568  0.25945703    -0.09200
C2441       C  0.89685585  0.65341733  0.27008080    -0.03700
C2442       C  0.88972700  0.62854483  0.29666018     0.03100
N2443       N  0.91109464  0.60323502  0.30753230     0.65600
H2444       H  0.85475386  0.60436214  0.32833785     0.14500
H2445       H  0.88048701  0.69792812  0.24142101     0.14200
N2446       N  0.82180190  0.69672135  0.26011919     0.73300
O2447       O  0.92410974  0.60501864  0.33763564    -0.40200
O2448       O  0.91063087  0.57494900  0.29113633    -0.40100
O2449       O  0.82355468  0.72676584  0.27333085    -0.40800
O2450       O  0.80562110  0.69127698  0.23227782    -0.40900
C2451       C  0.63380032  0.85689272  0.27255094    -0.13200
C2452       C  0.61245278  0.85374908  0.24414641     0.03800
C2453       C  0.62335696  0.84812018  0.21076648    -0.08400
C2454       C  0.65565284  0.85068393  0.20574553    -0.09200
C2455       C  0.67715698  0.85793490  0.23394926    -0.03700
C2456       C  0.66568574  0.85778321  0.26828507     0.03100
N2457       N  0.68547693  0.86170480  0.29927049     0.65600
H2458       H  0.62574616  0.85913611  0.29873728     0.14500
H2459       H  0.66388166  0.85005328  0.17935523     0.14200
N2460       N  0.60205005  0.83994797  0.18201104     0.73300
O2461       O  0.69341292  0.89213089  0.30997361    -0.40200
O2462       O  0.68492307  0.83685822  0.32147038    -0.40100
O2463       O  0.58893092  0.86439998  0.16621472    -0.40800
O2464       O  0.59107249  0.80862756  0.17797564    -0.40900
C2465       C  0.75469009  0.97328957  0.06623848    -0.13200
C2466       C  0.77329519  0.97432455  0.09715051     0.03800
C2467       C  0.79794621  0.95230702  0.10120527    -0.08400
C2468       C  0.80174119  0.92750040  0.07584355    -0.09200
C2469       C  0.78094657  0.92365116  0.04659269    -0.03700
C2470       C  0.75847434  0.94844267  0.04073841     0.03100
N2471       N  0.73834894  0.94799069  0.01009351     0.65600
H2472       H  0.73581607  0.99025415  0.06292817     0.14500
H2473       H  0.81965930  0.90952642  0.08057601     0.14200
N2474       N  0.81704842  0.95185456  0.13263609     0.73300
O2475       O  0.71177183  0.93136713  0.01078160    -0.40200
O2476       O  0.74347000  0.97107283  0.98654926    -0.40100
O2477       O  0.81034800  0.92899665  0.15599621    -0.40800
O2478       O  0.84432292  0.96689489  0.13267641    -0.40900
C2479       C  0.70189719  0.58747207  0.42604316    -0.13200
C2480       C  0.72101898  0.59432109  0.45614708     0.03800
C2481       C  0.74338349  0.57038967  0.46637149    -0.08400
C2482       C  0.74860056  0.54299812  0.44436855    -0.09200
C2483       C  0.73109021  0.53795933  0.41308297    -0.03700
C2484       C  0.70667578  0.55944010  0.40460219     0.03100
N2485       N  0.68869490  0.55548246  0.37251541     0.65600
H2486       H  0.68436613  0.60499281  0.41793292     0.14500
H2487       H  0.76763934  0.52687371  0.45075139     0.14200
N2488       N  0.76173642  0.57388309  0.49827749     0.73300
O2489       O  0.66146915  0.54036202  0.37292669    -0.40200
O2490       O  0.69668264  0.57405187  0.34622429    -0.40100
O2491       O  0.75316718  0.55583195  0.52467379    -0.40800
O2492       O  0.78962476  0.58705283  0.49752080    -0.40900
C2493       C  0.66518134  0.75993121  0.30482458    -0.13200
C2494       C  0.64205853  0.73309634  0.31222593     0.03800
C2495       C  0.65174880  0.70052364  0.32530768    -0.08400
C2496       C  0.68219238  0.69881841  0.33884108    -0.09200
C2497       C  0.70185248  0.72957125  0.34126707    -0.03700
C2498       C  0.69625613  0.75689753  0.31715886     0.03100
N2499       N  0.72170553  0.77954916  0.30391683     0.65600
H2500       H  0.65905533  0.78260230  0.28913886     0.14500
H2501       H  0.68787948  0.67564493  0.35391635     0.14200
N2502       N  0.63055477  0.66993912  0.32832117     0.73300
O2503       O  0.71828982  0.79514125  0.27476313    -0.40200
O2504       O  0.74899926  0.77854144  0.31731364    -0.40100
O2505       O  0.63109765  0.64624589  0.30601196    -0.40800
O2506       O  0.61872820  0.66232132  0.35742232    -0.40900
C2507       C  0.82024496  0.79498483  0.17396987    -0.13200
C2508       C  0.80899481  0.76581250  0.15476333     0.03800
C2509       C  0.82229057  0.73343253  0.16032630    -0.08400
C2510       C  0.84993590  0.73262866  0.18007911    -0.09200
C2511       C  0.86454412  0.76350175  0.19384900    -0.03700
C2512       C  0.84787551  0.79392241  0.19423500     0.03100
N2513       N  0.85962719  0.82474198  0.21237646     0.65600
H2514       H  0.80946344  0.81940626  0.17051068     0.14500
H2515       H  0.86169310  0.70874430  0.18079531     0.14200
N2516       N  0.81176553  0.70285762  0.14096427     0.73300
O2517       O  0.87250957  0.85018206  0.19534019    -0.40200
O2518       O  0.84895722  0.83029773  0.24179040    -0.40100
O2519       O  0.82488197  0.69685023  0.11305706    -0.40800
O2520       O  0.79566186  0.67824825  0.15584091    -0.40900
C2521       C  0.88783273  0.61090998  0.51490000    -0.13200
C2522       C  0.87683813  0.59081196  0.48629980     0.03800
C2523       C  0.85705566  0.60496267  0.46042736    -0.08400
C2524       C  0.84656385  0.63799813  0.46506213    -0.09200
C2525       C  0.85625640  0.65721860  0.49475709    -0.03700
C2526       C  0.87735581  0.64386856  0.51957783     0.03100
N2527       N  0.88745401  0.66292239  0.55018673     0.65600
H2528       H  0.90529464  0.60137936  0.53299784     0.14500
H2529       H  0.82961863  0.64788145  0.44642272     0.14200
N2530       N  0.84692673  0.58584299  0.42984392     0.73300
O2531       O  0.87213199  0.65824596  0.57755533    -0.40200
O2532       O  0.91484265  0.67762496  0.55221956    -0.40100
O2533       O  0.82033685  0.56914419  0.92878470    -0.40800
O2534       O  0.86079801  0.59242058  0.40175060    -0.40900
C2535       C  0.65207500  0.88302036  0.03632189    -0.13200
C2536       C  0.64213571  0.86280576  0.00733948     0.03800
C2537       C  0.62033316  0.87521465  0.98273994    -0.08400
C2538       C  0.61025964  0.90867265  0.98601619    -0.09200
C2539       C  0.62081600  0.92933459  0.01444730    -0.03700
C2540       C  0.64078357  0.91579775  0.04060308     0.03100
N2541       N  0.64975596  0.93499659  0.07150681     0.65600
H2542       H  0.66930839  0.87383420  0.05496691     0.14500
H2543       H  0.59327088  0.91794269  0.96713694     0.14200
N2544       N  0.60833115  0.85409774  0.95424302     0.73300
O2545       O  0.63515473  0.92806985  0.09907808    -0.40200
O2546       O  0.67585573  0.95269842  0.07336805    -0.40100
O2547       O  0.58112123  0.83902180  0.95537582    -0.40800
O2548       O  0.62214684  0.85597106  0.92574725    -0.40900
C2549       C  0.59378723  0.49054758  0.30506591    -0.13200
C2550       C  0.61605739  0.46816253  0.31806184     0.03800
C2551       C  0.61197365  0.95111465  0.35101022    -0.08400
C2552       C  0.58881376  0.96078055  0.37222040    -0.09200
C2553       C  0.56927012  0.98651658  0.36096670    -0.03700
C2554       C  0.57021966  0.49981603  0.32628582     0.03100
N2555       N  0.54964530  0.52516579  0.31352326     0.65600
H2556       H  0.59611556  0.50313647  0.27968381     0.14500
H2557       H  0.58724891  0.94960142  0.39832089     0.14200
N2558       N  0.63167806  0.92490702  0.36376171     0.73300
O2559       O  0.55849311  0.55732891  0.31567650    -0.40200
O2560       O  0.52756991  0.01528939  0.29203561    -0.40100
O2561       O  0.65137004  0.43202378  0.38810943    -0.40800
O2562       O  0.62348492  0.89319196  0.35752801    -0.40900
C2563       C  0.89507055  0.06806869  0.17206813    -0.13200
C2564       C  0.89123076  0.04227620  0.19836869     0.03800
C2565       C  0.91172226  0.01527453  0.20129047    -0.08400
C2566       C  0.93265643  0.51204191  0.17466753    -0.09200
C2567       C  0.93212248  0.53425902  0.14513582    -0.03700
C2568       C  0.91446292  0.56346159  0.14439655     0.03100
N2569       N  0.91359505  0.58663135  0.11477863     0.65600
H2570       H  0.88016447  0.08952963  0.17028958     0.14500
H2571       H  0.94689994  0.49001637  0.17550214     0.14200
N2572       N  0.90950084  0.98918472  0.22855202     0.73300
O2573       O  0.89218595  0.08361249  0.09360555    -0.40200
O2574       O  0.92863594  0.61631654  0.11641649    -0.40100
O2575       O  0.89455725  0.96003576  0.22253344    -0.40800
O2576       O  0.92954615  0.49320062  0.25459459    -0.40900
C2577       C  0.99592518  0.80609120  0.07430530    -0.13200
C2578       C  0.52611327  0.80970270  0.08979921     0.03800
C2579       C  0.55031468  0.82837901  0.07189729    -0.08400
C2580       C  0.54239761  0.84939691  0.04316324    -0.09200
C2581       C  0.01066018  0.85376959  0.03504303    -0.03700
C2582       C  0.98809081  0.82763811  0.04605786     0.03100
N2583       N  0.95621618  0.82682491  0.03357954     0.65600
H2584       H  0.97755553  0.78975846  0.08661524     0.14500
H2585       H  0.56038281  0.86747966  0.03239454     0.14400
N2586       N  0.58229367  0.82864283  0.08378754     0.73300
O2587       O  0.94653895  0.80457350  0.01100261    -0.40200
O2588       O  0.93656893  0.84073345  0.05134161    -0.40100
O2589       O  0.59929280  0.80748628  0.07046948    -0.40800
O2590       O  0.59523878  0.85610421  0.09733591    -0.40900
C2591       C  0.50011838  0.70845329  0.42677487    -0.13200
C2592       C  0.97214191  0.70126924  0.40714186     0.03800
C2593       C  0.94621627  0.68408034  0.42312983    -0.08400
C2594       C  0.95095711  0.66767498  0.45569427    -0.09200
C2595       C  0.48191996  0.66494802  0.46864192    -0.03700
C2596       C  0.50481571  0.69111169  0.45860685     0.03100
N2597       N  0.53489214  0.69530811  0.47610291     0.65600
H2598       H  0.51923531  0.72438035  0.41594667     0.14500
H2599       H  0.93235369  0.65043074  0.46562224     0.14200
N2600       N  0.91602146  0.68065730  0.40587594     0.73300
O2601       O  0.55743292  0.68088434  0.46392122    -0.40200
O2602       O  0.54071559  0.72093127  0.49614566    -0.40100
O2603       O  0.90772463  0.65318622  0.38923455    -0.40800
O2604       O  0.89544981  0.70019278  0.41460644    -0.40900
C2605       C  0.90599892  0.85549791  0.84179653     0.85600
C2606       C  0.92290074  0.88172854  0.86740972    -0.54600
C2607       C  0.90453563  0.89879930  0.88863288     0.08500
C2608       C  0.86845290  0.88810845  0.88147201     0.19500
C2609       C  0.88451997  0.83072006  0.86599967    -0.55400
C2610       C  0.86421968  0.84707414  0.88674728     0.08600
C2611       C  0.88210455  0.87792564  0.82114048    -0.54900
C2612       C  0.86203106  0.89515016  0.84113829     0.09200
H2613       H  0.94822970  0.88646844  0.86868373     0.13700
H2614       H  0.85316053  0.90218595  0.89808605    -0.00500
H2615       H  0.88504124  0.80241460  0.86601000     0.14000
H2616       H  0.88138569  0.88015993  0.79283137     0.13800
C2617       C  0.64641855  0.61263286  0.66184183     0.85600
C2618       C  0.62359476  0.63309012  0.68274850    -0.54600
C2619       C  0.60277674  0.65265801  0.66348267     0.08500
C2620       C  0.60876466  0.65076998  0.62243021     0.19500
C2621       C  0.62406213  0.59135353  0.63574402    -0.55400
C2622       C  0.60409760  0.61028995  0.61498115     0.08600
C2623       C  0.66329531  0.64101086  0.63850698    -0.54900
C2624       C  0.64523401  0.66126334  0.61673087     0.09200
H2625       H  0.62294724  0.63052378  0.71099356     0.13700
H2626       H  0.59292633  0.66633042  0.60587946    -0.00500
H2627       H  0.62374511  0.56302774  0.63425164     0.14000
H2628       H  0.68866086  0.64365809  0.63839040     0.13800
N2629       N  0.54429034  0.02272844  0.93669159    -0.07000
N2630       N  0.56731332  0.01537206  0.91718664    -0.59100
N2631       N  0.99179379  0.57665209  0.95462936    -0.06700
N2632       N  0.97418165  0.60310969  0.95311247    -0.61300
N2633       N  0.51843971  0.58559555  0.97183101    -0.06300
N2634       N  0.51923881  0.61852252  0.98187079    -0.59100
N2635       N  0.51723678  0.01408113  0.92024892    -0.06000
N2636       N  0.52132861  0.00127423  0.88923172    -0.61600
C2637       C  0.55265362  0.00251860  0.88780275     0.95200
C2638       C  0.49115791  0.62885715  0.97033480     0.94900
N2639       N  0.92024396  0.51809159  0.99313546    -0.07200
N2640       N  0.89664757  0.53387584  0.50492878    -0.59700
N2641       N  0.95112298  0.96839802  0.93336256    -0.05300
N2642       N  0.93989520  0.95364199  0.90384098    -0.61000
N2643       N  0.93933713  0.95092072  0.96045707    -0.07200
N2644       N  0.91982621  0.92402071  0.94956600    -0.60000
N2645       N  0.92988981  0.53362176  0.96428031    -0.05000
N2646       N  0.91299154  0.55957323  0.95511669    -0.61000
Mn2647     Mn  0.97310721  0.52303920  0.94176325     1.18400
C2648       C  0.89213608  0.55926046  0.98026315     0.97300
C2649       C  0.92018895  0.92586955  0.91395465     0.97900
N2650       N  0.55706824  0.56935938  0.54360370    -0.07200
N2651       N  0.57750291  0.59536829  0.55475950    -0.63600
N2652       N  0.56680494  0.98547913  0.53755059    -0.06000
N2653       N  0.58353703  0.95913511  0.54577261    -0.64200
N2654       N  0.57659718  0.00213539  0.00928718    -0.06700
N2655       N  0.60009728  0.98653865  0.99683991    -0.63800
N2656       N  0.54690505  0.55030318  0.57048374    -0.05600
N2657       N  0.56065845  0.56270128  0.59996629    -0.64500
Mn2658     Mn  0.54994776  0.54599719  0.98927899     1.10700
C2659       C  0.57923422  0.59159104  0.59032457     0.98500
C2660       C  0.60444488  0.96026266  0.52062140     0.98500
N2661       N  0.97691334  0.93475204  0.53223402    -0.06800
N2662       N  0.97468864  0.90156623  0.52282824    -0.62100
N2663       N  0.98055115  0.50728482  0.58209812    -0.06100
N2664       N  0.97778933  0.52179862  0.61248386    -0.58900
N2665       N  0.95297310  0.50009665  0.56622720    -0.07400
N2666       N  0.93084001  0.51023546  0.58571595    -0.61700
N2667       N  0.00421744  0.94298172  0.54835867    -0.06400
N2668       N  0.52090792  0.91557613  0.54977072    -0.58900
Mn2669     Mn  0.94639982  0.97505354  0.51433569     1.20200
Mn2670     Mn  0.52409497  0.99628029  0.56082718     1.10100
Cl2671     Cl  0.99846179  0.50995638  0.00136022    -0.86900
C2672       C  0.00252630  0.89022045  0.53371321     0.95500
C2673       C  0.94684411  0.52388561  0.61405448     0.95300
N2674       N  0.79751463  0.70597068  0.02182451    -0.07000
N2675       N  0.80915471  0.67569102  0.01854800    -0.59100
N2676       N  0.79150584  0.77541896  0.56740270    -0.06700
N2677       N  0.80486205  0.78991368  0.59570844    -0.61300
N2678       N  0.77106875  0.74963725  0.57675332    -0.06300
N2679       N  0.77001909  0.74644681  0.61081812    -0.59100
N2680       N  0.81695997  0.73175309  0.01018524    -0.06000
N2681       N  0.84241031  0.71913792  0.99879013    -0.61600
C2682       C  0.83685825  0.68422243  0.00451425     0.95200
C2683       C  0.79121323  0.77151919  0.62248708     0.94900
N2684       N  0.76727413  0.84912750  0.49301142    -0.07200
N2685       N  0.76086551  0.88156111  0.49938732    -0.59700
N2686       N  0.81806216  0.80044743  0.95533614    -0.05300
N2687       N  0.84590752  0.81064036  0.94209227    -0.61000
N2688       N  0.79548388  0.81033185  0.93385583    -0.07200
N2689       N  0.80782314  0.82760316  0.90621609    -0.60000
N2690       N  0.78975597  0.83946470  0.51436273    -0.05000
N2691       N  0.79933158  0.86495638  0.53568817    -0.61000
Mn2692     Mn  0.80517233  0.78641868  0.51213538     1.18400
C2693       C  0.78128338  0.89124906  0.52606289     0.97300
C2694       C  0.83958005  0.82723539  0.91078350     0.97900
N2695       N  0.70388454  0.71066829  0.56461892    -0.07200
N2696       N  0.69489607  0.69286001  0.59311841    -0.63600
N2697       N  0.70854214  0.67959081  0.98382341    -0.06000
N2698       N  0.70006795  0.65307229  0.96312544    -0.64200
N2699       N  0.73131415  0.67150998  0.00548064    -0.06700
N2700       N  0.73899292  0.63944068  0.00037238    -0.63800
N2701       N  0.67953983  0.71665161  0.54404686    -0.05600
N2702       N  0.65343736  0.70172065  0.55879810    -0.64500
Mn2703     Mn  0.75134977  0.70998218  0.54249649     1.10700
C2704       C  0.66321559  0.68728406  0.59042144     0.98500
C2705       C  0.71920551  0.62801645  0.97397197     0.98500
N2706       N  0.72515242  0.77052156  0.92036962    -0.06800
N2707       N  0.72864517  0.76888792  0.88636833    -0.62100
N2708       N  0.68088247  0.78806910  0.48908385    -0.06100
N2709       N  0.65608444  0.80071633  0.50217568    -0.58900
N2710       N  0.70005998  0.81413908  0.47705536    -0.07400
N2711       N  0.68882209  0.84439956  0.48203348    -0.61700
N2712       N  0.70645241  0.74370156  0.93153660    -0.06400
N2713       N  0.69777569  0.72322500  0.90519619    -0.58900
Mn2714     Mn  0.74631591  0.81118250  0.95486783     1.20200
Mn2715     Mn  0.69227837  0.73253555  0.98661127     1.10100
Cl2716     Cl  0.74869345  0.76022263  0.49867789    -0.86900
C2717       C  0.71186150  0.73889516  0.87729979     0.95500
C2718       C  0.66174543  0.83579588  0.49743766     0.95300
N2719       N  0.94504173  0.75159120  0.69613296    -0.07000
N2720       N  0.91596732  0.73865342  0.69042365    -0.59100
N2721       N  0.00989868  0.79965374  0.67725481    -0.06700
N2722       N  0.52053503  0.82098183  0.65200539    -0.61300
N2723       N  0.01087487  0.76701514  0.66721263    -0.06300
N2724       N  0.52214157  0.76568408  0.63587852    -0.59100
N2725       N  0.94500635  0.78373080  0.70783118    -0.06000
N2726       N  0.91637654  0.79307217  0.71037867    -0.61600
C2727       C  0.89847910  0.76461475  0.69976517     0.95200
C2728       C  0.52869797  0.79942390  0.62665625     0.94900
N2729       N  0.54076797  0.82868355  0.77891607    -0.07200
N2730       N  0.57076532  0.83693093  0.78333586    -0.59700
N2731       N  0.96118131  0.82430416  0.77776234    -0.05300
N2732       N  0.93498065  0.83991522  0.78391091    -0.61000
N2733       N  0.97343500  0.81306554  0.80755905    -0.07200
N2734       N  0.95588910  0.82075027  0.83403443    -0.60000
N2735       N  0.53084172  0.83771778  0.74740264    -0.05000
N2736       N  0.55463833  0.85130238  0.72928959    -0.61000
Mn2737     Mn  0.98645880  0.81298754  0.72679239     1.18400
C2738       C  0.57931988  0.85082688  0.75243217     0.97300
C2739       C  0.93137159  0.83758345  0.81950568     0.97900
N2740       N  0.53309564  0.69385233  0.69273777    -0.07200
N2741       N  0.55101542  0.68559217  0.66661245    -0.63600
N2742       N  0.97652039  0.66932325  0.75400043    -0.06000
N2743       N  0.95466590  0.65487865  0.77421468    -0.64200
N2744       N  0.96409829  0.67987784  0.72411531    -0.06700
N2745       N  0.93346377  0.67288222  0.72366141    -0.63800
N2746       N  0.54515659  0.68338087  0.72292128    -0.05600
N2747       N  0.57143816  0.66792669  0.71761115    -0.64500
Mn2748     Mn  0.98813942  0.72251385  0.69377859     1.10700
C2749       C  0.57542343  0.66919962  0.68215504     0.98500
C2750       C  0.92792776  0.65701197  0.75487370     0.98500
N2751       N  0.49547257  0.74115424  0.83195295    -0.06800
N2752       N  0.98119467  0.74345828  0.86124771    -0.62100
N2753       N  0.56163644  0.72368319  0.79270287    -0.06100
N2754       N  0.58926633  0.71150147  0.79236755    -0.58900
N2755       N  0.56308244  0.75584756  0.80472473    -0.07400
N2756       N  0.59286947  0.76594752  0.81280551    -0.61700
N2757       N  0.49628010  0.70842389  0.82248188    -0.06400
N2758       N  0.98273778  0.68772134  0.84648369    -0.58900
Mn2759     Mn  0.51852688  0.78515466  0.80686173     1.20200
Mn2760     Mn  0.52025777  0.69496217  0.77355139     1.10100
Cl2761     Cl  0.00363053  0.75413327  0.75005266    -0.86900
C2762       C  0.97294840  0.71013086  0.87018253     0.95500
C2763       C  0.60866417  0.73774655  0.80477717     0.95300
N2764       N  0.79371462  0.93847796  0.80593399    -0.07000
N2765       N  0.80623394  0.90947148  0.81829413    -0.59100
N2766       N  0.77171406  0.51051587  0.84326436    -0.06700
N2767       N  0.77000486  0.53166422  0.86950892    -0.61300
N2768       N  0.74887759  0.48570208  0.84331368    -0.06300
N2769       N  0.73040768  0.48978444  0.86954549    -0.59100
N2770       N  0.81543044  0.96475407  0.80545104    -0.06000
N2771       N  0.84287289  0.95402427  0.81732023    -0.61600
C2772       C  0.83731983  0.91911543  0.82505002     0.95200
C2773       C  0.74449471  0.51823021  0.88595337     0.94900
N2774       N  0.77536022  0.58909492  0.76381826    -0.07200
N2775       N  0.78733290  0.62209946  0.76312749    -0.59700
N2776       N  0.82639435  0.03048106  0.75163458    -0.05300
N2777       N  0.85649058  0.02712543  0.74822939    -0.61000
N2778       N  0.81395935  0.04464363  0.72313838    -0.07200
N2779       N  0.83542908  0.05132222  0.69998565    -0.60000
N2780       N  0.78452842  0.57397450  0.79352322    -0.05000
N2781       N  0.79969880  0.59730347  0.81378737    -0.61000
Mn2782     Mn  0.79986656  0.51991580  0.79815442     1.18400
C2783       C  0.80348434  0.62676382  0.79412926     0.97300
C2784       C  0.86164098  0.04045178  0.71591338     0.97900
N2785       N  0.69313775  0.46453777  0.79182034    -0.07200
N2786       N  0.67215212  0.45809894  0.81570915    -0.63600
N2787       N  0.71969373  0.93371804  0.72235276    -0.06000
N2788       N  0.70283373  0.90820508  0.70630290    -0.64200
N2789       N  0.73428208  0.92082380  0.75030356    -0.06700
N2790       N  0.72743874  0.88669402  0.75266686    -0.63800
N2791       N  0.68005618  0.47804553  0.76334423    -0.05600
N2792       N  0.64994439  0.48042909  0.76730881    -0.64500
Mn2793     Mn  0.74254883  0.95157411  0.79786809     1.10700
C2794       C  0.64538309  0.46753637  0.79999487     0.98500
C2795       C  0.70635072  0.87921458  0.72632481     0.98500
N2796       N  0.75789089  0.02268652  0.67108307    -0.06800
N2797       N  0.77559475  0.01960406  0.64395424    -0.62100
N2798       N  0.69131887  0.54438689  0.70743525    -0.06100
N2799       N  0.66440406  0.55484237  0.69339199    -0.58900
N2800       N  0.71319874  0.57066072  0.70701578    -0.07400
N2801       N  0.70108251  0.59904961  0.69242636    -0.61700
N2802       N  0.73528504  0.99744452  0.67135180    -0.06400
N2803       N  0.73662854  0.97694633  0.64443735    -0.58900
Mn2804     Mn  0.76491630  0.55783175  0.71609426     1.20200
Mn2805     Mn  0.70603352  0.98849074  0.71621467     1.10100
Cl2806     Cl  0.75314668  0.50464792  0.75687884    -0.86900
C2807       C  0.76160006  0.99120052  0.62743679     0.95500
C2808       C  0.67003871  0.58957338  0.68450722     0.95300
C2809       C  0.85975817  0.62535214  0.80967455    -0.13200
C2810       C  0.83561991  0.64448733  0.79449396     0.03800
C2811       C  0.84392055  0.67249543  0.77142925    -0.08400
C2812       C  0.87448349  0.67686390  0.75946615    -0.09200
C2813       C  0.89684533  0.65342658  0.77010653    -0.03700
C2814       C  0.88971838  0.62856723  0.79669862     0.03100
N2815       N  0.91108776  0.60326331  0.80758283     0.65600
H2816       H  0.85474435  0.60439311  0.82838114     0.14500
H2817       H  0.88046932  0.69791700  0.74141910     0.14200
N2818       N  0.82177722  0.69669737  0.76009454     0.73300
O2819       O  0.92408466  0.60504378  0.83769535    -0.40200
O2820       O  0.91064437  0.57498310  0.79118040    -0.40100
O2821       O  0.82351243  0.72675022  0.77328644    -0.40800
O2822       O  0.80560819  0.69122789  0.73224940    -0.40900
C2823       C  0.63379593  0.85687991  0.77253626    -0.13200
C2824       C  0.61244511  0.85373770  0.74413465     0.03800
C2825       C  0.62334587  0.84811013  0.71075280    -0.08400
C2826       C  0.65564140  0.85067687  0.70572718    -0.09200
C2827       C  0.67714865  0.85792593  0.73392884    -0.03700
C2828       C  0.66568082  0.85777090  0.76826625     0.03100
N2829       N  0.68547513  0.86168722  0.79924987     0.65600
H2830       H  0.62574478  0.85912002  0.79872407     0.14500
H2831       H  0.66386750  0.85004718  0.67933551     0.14200
N2832       N  0.60203590  0.83993142  0.68200153     0.73300
O2833       O  0.69341697  0.89211145  0.80995456    -0.40200
O2834       O  0.68492046  0.83683879  0.82144766    -0.40100
O2835       O  0.58890927  0.86437890  0.66620656    -0.40800
O2836       O  0.59106226  0.80860884  0.67797148    -0.40900
C2837       C  0.75472652  0.97329451  0.56623729    -0.13200
C2838       C  0.77331873  0.97431729  0.59715830     0.03800
C2839       C  0.79795964  0.95228721  0.60122503    -0.08400
C2840       C  0.80175749  0.92748211  0.57586289    -0.09200
C2841       C  0.78097411  0.92364635  0.54660098    -0.03700
C2842       C  0.75851239  0.94844791  0.54073812     0.03100
N2843       N  0.73839745  0.94800535  0.51008521     0.65600
H2844       H  0.73585942  0.99026732  0.56291927     0.14500
H2845       H  0.81966654  0.90949898  0.58060315     0.14200
N2846       N  0.81704661  0.95182125  0.63266666     0.73300
O2847       O  0.71181104  0.93140163  0.51076501    -0.40200
O2848       O  0.74354078  0.97107896  0.48653817    -0.40100
O2849       O  0.81032950  0.92895947  0.65601783    -0.40800
O2850       O  0.84432435  0.96685441  0.63272678    -0.40900
C2851       C  0.70189142  0.58745540  0.92606399    -0.13200
C2852       C  0.72101932  0.59431139  0.95616200     0.03800
C2853       C  0.74339156  0.57038717  0.96638093    -0.08400
C2854       C  0.74861099  0.54299783  0.94437606    -0.09200
C2855       C  0.73109444  0.53795325  0.91309517    -0.03700
C2856       C  0.70667174  0.55942476  0.90462204     0.03100
N2857       N  0.68868329  0.55546042  0.87254100     0.65600
H2858       H  0.68435443  0.60496938  0.91795892     0.14500
H2859       H  0.76765426  0.52688015  0.95075357     0.14200
N2860       N  0.76174944  0.57388527  0.99828322     0.73300
O2861       O  0.66146161  0.54033036  0.87296165    -0.40200
O2862       O  0.69665795  0.57403385  0.84624779    -0.40100
O2863       O  0.75318506  0.55583676  0.02468306    -0.40800
O2864       O  0.78963738  0.58705501  0.99751964    -0.40900
C2865       C  0.66518912  0.75991597  0.80481555    -0.13200
C2866       C  0.64206014  0.73308942  0.81222202     0.03800
C2867       C  0.65174219  0.70051598  0.82531152    -0.08400
C2868       C  0.68218455  0.69880381  0.83884595    -0.09200
C2869       C  0.70185096  0.72955223  0.84126809    -0.03700
C2870       C  0.69626208  0.75687627  0.81715443     0.03100
N2871       N  0.72171701  0.77951933  0.80391215     0.65600
H2872       H  0.65906920  0.78258439  0.78912298     0.14500
H2873       H  0.68786566  0.67563101  0.85392536     0.14200
N2874       N  0.63054065  0.66993854  0.82833197     0.73300
O2875       O  0.71830697  0.79510881  0.77475618    -0.40200
O2876       O  0.74900920  0.77850478  0.81731162    -0.40100
O2877       O  0.63107179  0.64624206  0.80602426    -0.40800
O2878       O  0.61871505  0.66232944  0.85743537    -0.40900
C2879       C  0.82023878  0.79498357  0.67397901    -0.13200
C2880       C  0.80899161  0.76581624  0.65476292     0.03800
C2881       C  0.82228395  0.73343410  0.66032358    -0.08400
C2882       C  0.84992484  0.73262356  0.68008328    -0.09200
C2883       C  0.86453128  0.76349196  0.69386509    -0.03700
C2884       C  0.84786264  0.79391241  0.69425573     0.03100
N2885       N  0.85960374  0.82471978  0.71242378     0.65600
H2886       H  0.80945821  0.81940564  0.67052422     0.14500
H2887       H  0.86168060  0.70873876  0.68079634     0.14200
N2888       N  0.81176057  0.70286391  0.64095351     0.73300
O2889       O  0.87249032  0.85017422  0.69541132    -0.40200
O2890       O  0.84891989  0.83025180  0.74183640    -0.40100
O2891       O  0.82488601  0.69685632  0.61305211    -0.40800
O2892       O  0.79564046  0.67825906  0.65581650    -0.40900
C2893       C  0.88781428  0.61090318  0.01489645    -0.13200
C2894       C  0.87682101  0.59080887  0.98629399     0.03800
C2895       C  0.85704341  0.60496489  0.96041978    -0.08400
C2896       C  0.84655564  0.63800255  0.96505549    -0.09200
C2897       C  0.85624695  0.65721934  0.99475350    -0.03700
C2898       C  0.87734093  0.64386277  0.01957633     0.03100
N2899       N  0.88743794  0.66291130  0.05018892     0.65600
H2900       H  0.90527487  0.60136871  0.03299342     0.14500
H2901       H  0.82961339  0.64789025  0.94641443     0.14200
N2902       N  0.84691498  0.58584838  0.92983427     0.73300
O2903       O  0.87210850  0.65823856  0.07755253    -0.40200
O2904       O  0.91483168  0.67759918  0.05223192    -0.40100
O2905       O  0.82034501  0.56914668  0.42879257    -0.40800
O2906       O  0.86078096  0.59243562  0.90173928    -0.40900
C2907       C  0.65209338  0.88303787  0.53631546    -0.13200
C2908       C  0.64214424  0.86281587  0.50734127     0.03800
C2909       C  0.62033162  0.87521744  0.48274925    -0.08400
C2910       C  0.61025903  0.90867635  0.48602271    -0.09200
C2911       C  0.62082453  0.92934528  0.51444573    -0.03700
C2912       C  0.64080116  0.91581484  0.54059609     0.03100
N2913       N  0.64977835  0.93501692  0.57149647     0.65600
H2914       H  0.66933267  0.87385669  0.55495509     0.14500
H2915       H  0.59326275  0.91794065  0.46714984     0.14200
N2916       N  0.60831520  0.85409094  0.45426535     0.73300
O2917       O  0.63518203  0.92809108  0.59907127    -0.40200
O2918       O  0.67588020  0.95271492  0.57335267    -0.40100
O2919       O  0.58110775  0.83901232  0.45542199    -0.40800
O2920       O  0.62210983  0.85596432  0.42575625    -0.40900
C2921       C  0.59375578  0.49048421  0.80507071    -0.13200
C2922       C  0.61604165  0.46812201  0.81807470     0.03800
C2923       C  0.61196352  0.95108677  0.85098883    -0.08400
C2924       C  0.58881155  0.96075916  0.87220710    -0.09200
C2925       C  0.56927354  0.98650358  0.86096135    -0.03700
C2926       C  0.57018545  0.49974748  0.82629011     0.03100
N2927       N  0.54959416  0.52507610  0.81351849     0.65600
H2928       H  0.59607376  0.50306190  0.77968177     0.14500
H2929       H  0.58724646  0.94957532  0.89830500     0.14200
N2930       N  0.63165579  0.92486194  0.86372654     0.73300
O2931       O  0.55843011  0.55724476  0.81564017    -0.40200
O2932       O  0.52756590  0.01528982  0.79204646    -0.40100
O2933       O  0.65137710  0.43203761  0.88814078    -0.40800
O2934       O  0.62344184  0.89315239  0.85748947    -0.40900
C2935       C  0.89505921  0.06807455  0.67205397    -0.13200
C2936       C  0.89123119  0.04229079  0.69836488     0.03800
C2937       C  0.91173540  0.01530187  0.70129600    -0.08400
C2938       C  0.93269179  0.51211450  0.67467915    -0.09200
C2939       C  0.93211148  0.53428491  0.64511417    -0.03700
C2940       C  0.91439800  0.56344448  0.64433586     0.03100
N2941       N  0.91347230  0.58656081  0.61468002     0.65600
H2942       H  0.88014492  0.08952738  0.67026821     0.14500
H2943       H  0.94697426  0.49012221  0.67554228     0.14200
N2944       N  0.90952980  0.98922427  0.72856990     0.73300
O2945       O  0.89215170  0.08359386  0.59359362    -0.40200
O2946       O  0.92848266  0.61626703  0.61625138    -0.40100
O2947       O  0.89459697  0.96006576  0.72256737    -0.40800
O2948       O  0.92964080  0.49337578  0.75462627    -0.40900
C2949       C  0.99591886  0.80608515  0.57432379    -0.13200
C2950       C  0.52610457  0.80968252  0.58980977     0.03800
C2951       C  0.55030824  0.82836036  0.57191284    -0.08400
C2952       C  0.54239441  0.84938473  0.54318251    -0.09200
C2953       C  0.01065500  0.85376520  0.53506388    -0.03700
C2954       C  0.98808308  0.82763769  0.54608181     0.03100
N2955       N  0.95620564  0.82683518  0.53361522     0.65600
H2956       H  0.97754815  0.78975465  0.58663611     0.14500
H2957       H  0.56038136  0.86746648  0.53241693     0.14400
N2958       N  0.58228707  0.82861573  0.58380253     0.73300
O2959       O  0.94651478  0.80458292  0.51104461    -0.40200
O2960       O  0.93656906  0.84075240  0.55138502    -0.40100
O2961       O  0.59927545  0.80743802  0.57050019    -0.40800
O2962       O  0.59524459  0.85608199  0.59732967    -0.40900
C2963       C  0.50016118  0.70844040  0.92679072    -0.13200
C2964       C  0.97216969  0.70124914  0.90716305     0.03800
C2965       C  0.94624524  0.68407773  0.92316977    -0.08400
C2966       C  0.95099185  0.66768982  0.95574174    -0.09200
C2967       C  0.48196208  0.66495410  0.96867589    -0.03700
C2968       C  0.50486214  0.69110705  0.95862651     0.03100
N2969       N  0.53494343  0.69529847  0.97611249     0.65600
H2970       H  0.51927884  0.72435865  0.91595173     0.14500
H2971       H  0.93238573  0.65045661  0.96568630     0.14200
N2972       N  0.91604680  0.68064657  0.90592554     0.73300
O2973       O  0.55747492  0.68085759  0.96393119    -0.40200
O2974       O  0.54078138  0.72093126  0.99614030    -0.40100
O2975       O  0.90774185  0.65315860  0.88931491    -0.40800
O2976       O  0.89547906  0.70018986  0.91464995    -0.40900
loop_ 
_geom_bond_atom_site_label_1 
_geom_bond_atom_site_label_2 
_geom_bond_distance 
_geom_bond_site_symmetry_2 
_ccdc_geom_bond_type 
C1            C2   1.538       .  S
C1            C7   1.568       .  S
C1            C5   1.580       .  S
C1          C135   1.614       .  S
C2            H9   1.087       .  S
C2            C3   1.367       .  D
C3            C4   1.584       .  S
C3           C45   1.531       .  S
C4            C8   1.579       .  S
C4            C6   1.576       .  S
C4           H10   1.110       .  S
C5           H11   1.085       .  S
C5            C6   1.396       .  D
C6           C90   1.569       .  S
C7           H12   1.085       .  S
C7            C8   1.390       .  D
C8          C168   1.557       .  S
C13          C14   1.559       .  S
C13          C19   1.544       .  S
C13          C17   1.554       .  S
C13         C204   1.612       .  S
C14          H21   1.085       .  S
C14          C15   1.390       .  D
C15          C16   1.607       .  S
C15         C145   1.581       .  S
C16          C20   1.606       .  S
C16          C18   1.576       .  S
C16          H22   1.110       .  S
C17          H23   1.086       .  S
C17          C18   1.382       .  D
C18          C55   1.538       .  S
C19          H24   1.085       .  S
C19          C20   1.383       .  D
C20         C100   1.580       .  S
N25          N26   1.315       .  A
N25          N31   1.320       .  A
N25        Mn798   2.223       .  S
N26          C33   1.350       .  A
N27          N28   1.310       .  A
N27        N1517   1.321       .  A
N27         Mn43   2.201       .  S
N28        C1522   1.346       .  A
N29          N30   1.323       .  A
N29        N1515   1.321   1_455  A
N29         Mn54   2.187       .  S
N30          C34   1.353   1_455  A
N31          N32   1.319       .  A
N31       Mn2275   2.156   1_455  S
N32          C33   1.345       .  A
C33         C321   1.449       .  S
C34        N1516   1.346       .  A
C34         C363   1.466       .  S
N35          N41   1.309       .  A
N35         N408   1.321       .  A
N35       Mn1181   2.190   1_545  S
N36         N407   1.321   1_554  A
N36         C416   1.359   1_554  A
N37          N38   1.331       .  A
N37          N39   1.318       .  A
N37        Mn787   2.250       .  S
N38          C45   1.363       .  A
N39          N40   1.336       .  A
N39        Mn437   2.278       .  S
N40          C45   1.365       .  A
N41          N42   1.310       .  A
N41         Mn43   2.148       .  S
N42          C44   1.340       .  A
Mn43       N2263   2.156       .  S
Mn43        N781   2.250   1_545  S
Mn43        Cl67   2.545       .  S
C44         N408   1.359       .  A
C44         C290   1.448       .  S
N46          N47   1.338       .  A
N46          N52   1.316       .  A
N46        Mn426   2.282   1_554  S
N47          C55   1.366       .  A
N48          N49   1.310       .  A
N48         N422   1.310       .  A
N48         Mn66   2.144       .  S
N49          C56   1.341       .  A
N50          N51   1.323       .  A
N50         N420   1.310       .  A
N50        Mn798   2.211       .  S
N51         C428   1.360       .  A
N52          N53   1.332       .  A
N52        Mn810   2.248   1_545  S
N53          C55   1.363       .  A
Mn54        N769   2.223       .  S
Mn54        N418   2.282       .  S
Mn54        N794   2.211       .  S
Mn54      Cl1555   2.563   1_455  S
C56         N423   1.360   1_554  A
C56         C307   1.452       .  S
N57          N58   1.323       .  A
N57          N63   1.321       .  A
N57         Mn65   2.184       .  S
N58          C68   1.351       .  A
N59          N60   1.315       .  A
N59          N61   1.320       .  A
N59       Mn2298   2.149   1_545  S
N60          C69   1.341       .  A
N61          N62   1.319       .  A
N61        Mn809   2.233   1_545  S
N62          C69   1.353       .  A
N63        N1552   1.312       .  A
N63       Mn1554   2.205       .  S
N64        N1551   1.312       .  A
N64        C1556   1.347       .  A
Mn65       N1151   2.191   1_554  S
Mn65        N411   2.278   1_554  S
Mn65        N805   2.232       .  S
Mn65      Cl1183   2.567       .  S
Mn66        N796   2.249       .  S
Mn66       N2291   2.149   1_455  S
Mn66       N1551   2.205       .  S
Mn66      Cl2671   2.546   1_455  S
Cl67      Mn1542   2.562       .  S
Cl67      Mn1181   2.567   1_545  S
Cl67      Mn2670   2.546   1_545  S
C68        N1552   1.347       .  A
C68         C349   1.465       .  S
C69         C335   1.448       .  S
N70          N71   1.309       .  A
N70          N76   1.321       .  A
N70        Mn471   2.181       .  S
N71          C78   1.338       .  A
N72          N74   1.319       .  A
N72          N73   1.318       .  A
N72         Mn88   2.242       .  S
N73          C79   1.357       .  A
N74          N75   1.310       .  A
N74         Mn99   2.128       .  S
N75          C79   1.339       .  A
N76          N77   1.323       .  A
N76        Mn460   2.195       .  S
N77          C78   1.353       .  A
C78         C293   1.442       .  S
C79         C276   1.448       .  S
N80          N86   1.310   1_556  A
N80          N81   1.323       .  A
N80        Mn482   2.197       .  S
N81          C89   1.357   1_556  A
N82          N83   1.343       .  A
N82          N84   1.319       .  A
N82        Mn460   2.308       .  S
N83          C90   1.372       .  A
N84          N85   1.340       .  A
N84        Mn110   2.291       .  S
N85          C90   1.368       .  A
N86          N87   1.316       .  A
N86         Mn88   2.189       .  S
N87          C89   1.354       .  A
Mn88        N448   2.195       .  S
Mn88        N454   2.308   1_554  S
Mn88       Cl112   2.584   1_554  S
C89         C237   1.484       .  S
N91          N92   1.328       .  A
N91          N97   1.315       .  A
N91         Mn99   2.239       .  S
N92         C100   1.359       .  A
N93          N95   1.308       .  A
N93          N94   1.320       .  A
N93        Mn111   2.201       .  S
N94         C101   1.359       .  A
N95          N96   1.317       .  A
N95        Mn471   2.169       .  S
N96         C101   1.351       .  A
N97          N98   1.354       .  A
N97        Mn483   2.344   1_554  S
N98         C100   1.384       .  A
Mn99        N442   2.181       .  S
Mn99        N467   2.169       .  S
Mn99       Cl112   2.529   1_554  S
C101        C248   1.481       .  S
N102        N103   1.320       .  A
N102        N108   1.325       .  A
N102       Mn110   2.181       .  S
N103        C113   1.349       .  A
N104        N105   1.325   1_556  A
N104        N106   1.327       .  A
N104       Mn483   2.223       .  S
N105        C114   1.354   1_554  A
N106        N107   1.310       .  A
N106       Mn482   2.203       .  S
N107        C114   1.338       .  A
N108        N109   1.315       .  A
N108       Mn111   2.242       .  S
N109        C113   1.353       .  A
Mn110       N452   2.197       .  S
Mn110       N478   2.203       .  S
Mn110      Cl484   2.549       .  S
Mn111       N469   2.344       .  S
Mn111       N476   2.223       .  S
Mn111      Cl484   2.591       .  S
Cl112      Mn482   2.549       .  S
Cl112      Mn483   2.591       .  S
C113        C265   1.472       .  S
C114        C304   1.450   1_556  S
N115        N116   1.316       .  A
N115        N121   1.319       .  A
N115       Mn144   2.240       .  S
N116        C123   1.355       .  A
N117        N119   1.320       .  A
N117       N1606   1.324       .  A
N117       Mn133   2.271       .  S
N118       N1605   1.324       .  A
N118        C124   1.363       .  A
N119       N1608   1.314       .  A
N119       Mn144   2.150       .  S
N120       N1607   1.314       .  A
N120        C124   1.341       .  A
N121        N122   1.315       .  A
N121       Mn133   2.134       .  S
N122        C123   1.342       .  A
C123        C279   1.462       .  S
C124        C346   1.458       .  S
N125        N131   1.312       .  A
N125        N126   1.306       .  A
N125       Mn155   2.139       .  S
N126        C134   1.339       .  A
N127        N128   1.347       .  A
N127        N129   1.315       .  A
N127       Mn133   2.337       .  S
N128        C135   1.378       .  A
N129        N130   1.339       .  A
N129      Mn1643   2.286       .  S
N130        C135   1.370       .  A
N131        N132   1.323       .  A
N131      Mn1621   2.186   1_455  S
N132        C134   1.354       .  A
Mn133      N1619   2.186       .  S
Mn133      Cl157   2.556       .  S
C134        C220   1.464       .  S
N136        N137   1.345       .  A
N136        N142   1.315       .  A
N136      Mn1632   2.297   1_455  S
N137        C145   1.373       .  A
N138        N140   1.312       .  A
N138        N139   1.319       .  A
N138      Mn1644   2.164       .  S
N139        C146   1.347       .  A
N140        N141   1.320       .  A
N140       Mn144   2.195       .  S
N141        C146   1.350       .  A
N142        N143   1.340       .  A
N142       Mn156   2.319       .  S
N143        C145   1.375       .  A
Mn144      N1624   2.297       .  S
Mn144      Cl157   2.535       .  S
C146        C209   1.473       .  S
N147        N153   1.315       .  A
N147       N1636   1.309       .  A
N147       Mn155   2.115   1_655  S
N148       N1635   1.309       .  A
N148        C158   1.336       .  A
N149        N150   1.309       .  A
N149        N151   1.320       .  A
N149       Mn156   2.124       .  S
N150        C159   1.335       .  A
N151        N152   1.331       .  A
N151       Mn155   2.299       .  S
N152        C159   1.367       .  A
N153       N1642   1.324       .  A
N153       Mn156   2.263   1_655  S
N154       N1641   1.324       .  A
N154        C158   1.364       .  A
Mn155      N1617   2.286   1_455  S
Mn155     Cl1645   2.539       .  S
Mn156      N1626   2.164   1_455  S
Mn156     Cl1645   2.560       .  S
Cl157     Mn1643   2.539       .  S
Cl157     Mn1644   2.560       .  S
C158        C360   1.450       .  S
C159        C262   1.474       .  S
N160        N161   1.340       .  A
N160        N166   1.315       .  A
N160       Mn189   2.298       .  S
N161        C168   1.371       .  A
N162        N164   1.308   1_545  A
N162        N163   1.313       .  A
N162       Mn178   2.155       .  S
N163        C169   1.345       .  A
N164        N165   1.324       .  A
N164       Mn933   2.198       .  S
N165        C169   1.356   1_565  A
N166        N167   1.337       .  A
N166       Mn922   2.271       .  S
N167        C168   1.366       .  A
C169        C251   1.461       .  S
N170        N176   1.325       .  A
N170        N171   1.324       .  A
N170       Mn200   2.218       .  S
N171        C179   1.358       .  A
N172        N173   1.320       .  A
N172        N174   1.320       .  A
N172       Mn922   2.171       .  S
N173        C180   1.348       .  A
N174        N175   1.311       .  A
N174       Mn944   2.205       .  S
N175        C180   1.348       .  A
N176        N177   1.311       .  A
N176       Mn178   2.222       .  S
N177        C179   1.344       .  A
Mn178       N910   2.271   1_545  S
Mn178       N916   2.170       .  S
Mn178      Cl202   2.541       .  S
C179        C206   1.487       .  S
C180        C332   1.457       .  S
N181        N182   1.315       .  A
N181        N187   1.320       .  A
N181       Mn933   2.217       .  S
N182        C190   1.347       .  A
N183        N185   1.324       .  A
N183        N184   1.316       .  A
N183       Mn201   2.226       .  S
N184        C191   1.349       .  A
N185        N186   1.317       .  A
N185       Mn189   2.193       .  S
N186        C191   1.348       .  A
N187        N188   1.318       .  A
N187       Mn945   2.178       .  S
N188        C190   1.351       .  A
Mn189       N908   2.199       .  S
Mn189       N925   2.217       .  S
Mn189      Cl946   2.557       .  S
C190        C318   1.464       .  S
C191        C223   1.474       .  S
N192        N193   1.325       .  A
N192        N198   1.313       .  A
N192       Mn944   2.211       .  S
N193        C203   1.355       .  A
N194        N195   1.341       .  A
N194        N196   1.319       .  A
N194       Mn945   2.293   1_545  S
N195        C204   1.369       .  A
N196        N197   1.343       .  A
N196       Mn200   2.323       .  S
N197        C204   1.376       .  A
N198        N199   1.315       .  A
N198       Mn201   2.174       .  S
N199        C203   1.348       .  A
Mn200       N918   2.206       .  S
Mn200       N936   2.211       .  S
Mn200      Cl202   2.567       .  S
Mn201       N931   2.178       .  S
Mn201       N938   2.293       .  S
Mn201      Cl946   2.550       .  S
Cl202      Mn933   2.558   1_545  S
Cl202      Mn945   2.550   1_545  S
C203        C234   1.466       .  S
C205        C206   1.415       .  A
C205        C210   1.392       .  A
C205        H212   1.078       .  S
C206        C207   1.406       .  A
C207        C208   1.403       .  A
C207        N214   1.428       .  S
C208        C209   1.408       .  A
C208        H213   1.071       .  S
C209        C210   1.404       .  A
C210        N211   1.431       .  S
N211        O215   1.261       .  A
N211        O216   1.262       .  A
N214        O218   1.261       .  A
N214        O217   1.262       .  A
C219        C220   1.395       .  A
C219        C224   1.382       .  A
C219        H226   1.081       .  S
C220        C221   1.406       .  A
C221        C222   1.402       .  A
C221        N228   1.426       .  S
C222        C223   1.410       .  A
C222        H227   1.086       .  S
C223        C224   1.423       .  A
C224        N225   1.435       .  S
N225        O229   1.259       .  A
N225        O230   1.260       .  A
N228        O232   1.262       .  A
N228        O231   1.261       .  A
C233        C234   1.400       .  A
C233        C238   1.401       .  A
C233        H240   1.080       .  S
C234        C235   1.406       .  A
C235        C236   1.397       .  A
C235        N242   1.429       .  S
C236        C237   1.407       .  A
C236        H241   1.080       .  S
C237        C238   1.415       .  A
C238        N239   1.428       .  S
N239        O243   1.261       .  A
N239        O244   1.261   1_554  A
N242        O246   1.262       .  A
N242        O245   1.262       .  A
C247        C248   1.405       .  A
C247        C252   1.398       .  A
C247        H254   1.079       .  S
C248        C249   1.417       .  A
C249        C250   1.397       .  A
C249        N256   1.430       .  S
C250        C251   1.397       .  A
C250        H255   1.080       .  S
C251        C252   1.407       .  A
C252        N253   1.429       .  S
N253        O257   1.262       .  A
N253        O258   1.262       .  A
N256        O260   1.262       .  A
N256        O259   1.262       .  A
C261        C262   1.401       .  A
C261        C266   1.409       .  A
C261        H268   1.088       .  S
C262        C263   1.420       .  A
C263        C264   1.392       .  A
C263        N270   1.428       .  S
C264        C265   1.394       .  A
C264        H269   1.086       .  S
C265        C266   1.408       .  A
C266        N267   1.440       .  S
N267        O271   1.263       .  A
N267        O272   1.263       .  A
N270        O274   1.262       .  A
N270        O273   1.262       .  A
C275        C276   1.393       .  A
C275        C280   1.393       .  A
C275        H282   1.079       .  S
C276        C277   1.414       .  A
C277        C278   1.383       .  A
C277        N284   1.432       .  S
C278        C279   1.396       .  A
C278        H283   1.078       .  S
C279        C280   1.415       .  A
C280        N281   1.428       .  S
N281        O285   1.262       .  A
N281        O286   1.262       .  A
N284        O288   1.262       .  A
N284        O287   1.262       .  A
C289        C290   1.397       .  A
C289        C294   1.390       .  A
C289        H296   1.080       .  S
C290        C291   1.406       .  A
C291        C292   1.393       .  A
C291        N298   1.429       .  S
C292        C293   1.399       .  A
C292        H297   1.083       .  S
C293        C294   1.403       .  A
C294        N295   1.428       .  S
N295        O299   1.262       .  A
N295        O300   1.262       .  A
N298        O302   1.261       .  A
N298        O673   1.261       .  A
O301        N670   1.261       .  A
C303        C304   1.400       .  A
C303        C308   1.396       .  A
C303        H310   1.081       .  S
C304        C305   1.403   1_554  A
C305        C306   1.394       .  A
C305        N312   1.427       .  S
C306        C307   1.399   1_556  A
C306        H311   1.081       .  S
C307        C308   1.409       .  A
C308        N309   1.430       .  S
N309        O313   1.262       .  A
N309        O314   1.262       .  A
N312        O316   1.261       .  A
N312        O315   1.262       .  A
C317        C318   1.403       .  A
C317        C322   1.395       .  A
C317        H324   1.080   1_565  S
C318       C1063   1.411       .  A
C319        C320   1.387       .  A
C319       C1062   1.411       .  A
C319        N326   1.429       .  S
C320        C321   1.394       .  A
C320        H325   1.081       .  S
C321       C1066   1.406       .  A
C322       C1065   1.406       .  A
C322        N323   1.429   1_565  S
N323        O327   1.262       .  A
N323       O1072   1.262       .  A
N326        O330   1.261       .  A
N326       O1073   1.262       .  A
O328       N1067   1.262       .  A
O329       N1070   1.262       .  A
C331        C332   1.400       .  A
C331       C1080   1.385       .  A
C331        H338   1.080       .  S
C332        C333   1.410       .  A
C333       C1078   1.397       .  A
C333        N340   1.429       .  S
C334        C335   1.400       .  A
C334       C1077   1.396       .  A
C334        H339   1.080   1_545  S
C335        C336   1.399       .  A
C336       C1075   1.385       .  A
C336        N337   1.425       .  S
N337       O1085   1.261       .  A
N337        O342   1.262       .  A
N340       O1088   1.262       .  A
N340        O343   1.262       .  A
O341       N1081   1.261       .  A
O344       N1084   1.262       .  A
C345        C350   1.392       .  A
C345       C1834   1.402       .  A
C345        H352   1.082       .  S
C346        C347   1.405       .  A
C346       C1833   1.402   1_455  A
C347        C348   1.395       .  A
C347        N354   1.428       .  S
C348       C1837   1.405       .  A
C348        H353   1.082       .  S
C349        C350   1.405       .  A
C349       C1836   1.405       .  A
C350        N351   1.429       .  S
N351        O355   1.262       .  A
N351        O356   1.262       .  A
N354        O358   1.261       .  A
N354        O357   1.262       .  A
C359        C364   1.390       .  A
C359       C1848   1.403   1_455  A
C359        H366   1.073       .  S
C360        C361   1.402       .  A
C360       C1847   1.403       .  A
C361        C362   1.398       .  A
C361        N368   1.428       .  S
C362       C1851   1.410       .  A
C362        H367   1.071       .  S
C363        C364   1.404   1_655  A
C363       C1850   1.410       .  A
C364        N365   1.429       .  S
N365        O369   1.262       .  A
N365        O370   1.262       .  A
N368        O372   1.262       .  A
N368        O371   1.261       .  A
C373        C374   1.538       .  S
C373        C379   1.568       .  S
C373        C377   1.580       .  S
C373        C507   1.614       .  S
C374        H381   1.087       .  S
C374        C375   1.367       .  D
C375        C376   1.584       .  S
C375        C417   1.531       .  S
C376        C380   1.579       .  S
C376        C378   1.576       .  S
C376        H382   1.110       .  S
C377        H383   1.085       .  S
C377        C378   1.396       .  D
C378        C462   1.569       .  S
C379        H384   1.085       .  S
C379        C380   1.390       .  D
C380        C540   1.556       .  S
C385        C386   1.559       .  S
C385        C391   1.544       .  S
C385        C389   1.554       .  S
C385        C576   1.612       .  S
C386        H393   1.085       .  S
C386        C387   1.390       .  D
C387        C388   1.607       .  S
C387        C517   1.581       .  S
C388        C392   1.606       .  S
C388        C390   1.576       .  S
C388        H394   1.110       .  S
C389        H395   1.086       .  S
C389        C390   1.382       .  D
C390        C427   1.538       .  S
C391        H396   1.085       .  S
C391        C392   1.383       .  D
C392        C472   1.580       .  S
N397        N398   1.315       .  A
N397        N403   1.320       .  A
N397      Mn1170   2.223       .  S
N398        C405   1.350       .  A
N399       N1889   1.321       .  A
N399        N400   1.310       .  A
N399       Mn415   2.200       .  S
N400       C1894   1.346       .  A
N401       N1887   1.321   1_455  A
N401        N402   1.323       .  A
N401       Mn426   2.187       .  S
N402        C406   1.353   1_455  A
N403        N404   1.319       .  A
N403      Mn2647   2.156   1_455  S
N404        C405   1.345       .  A
C405        C693   1.449       .  S
C406       N1888   1.346       .  A
C406        C735   1.466       .  S
N407        N413   1.309       .  A
N407       Mn809   2.190   1_546  S
N409        N410   1.331       .  A
N409        N411   1.318       .  A
N409      Mn1159   2.250       .  S
N410        C417   1.363       .  A
N411        N412   1.336       .  A
N412        C417   1.365       .  A
N413        N414   1.310       .  A
N413       Mn415   2.148       .  S
N414        C416   1.340       .  A
Mn415      N2635   2.156       .  S
Mn415      N1153   2.250   1_545  S
Mn415      Cl439   2.545   1_556  S
C416        C662   1.448       .  S
N418        N419   1.338       .  A
N418        N424   1.316       .  A
N419        C427   1.366       .  A
N420        N421   1.310       .  A
N420       Mn438   2.144       .  S
N421        C428   1.341       .  A
N422        N423   1.323   1_554  A
N422      Mn1170   2.211   1_554  S
N424        N425   1.332       .  A
N424      Mn1182   2.248   1_545  S
N425        C427   1.363       .  A
Mn426      N1141   2.223       .  S
Mn426      N1166   2.211   1_556  S
Mn426     Cl1927   2.563   1_456  S
C428        C679   1.453       .  S
N429        N430   1.323       .  A
N429        N435   1.321       .  A
N429       Mn437   2.184       .  S
N430        C440   1.351       .  A
N431        N432   1.315       .  A
N431        N433   1.320       .  A
N431      Mn2670   2.149   1_545  S
N432        C441   1.341       .  A
N433        N434   1.319       .  A
N433      Mn1181   2.233   1_545  S
N434        C441   1.353       .  A
N435       N1924   1.312       .  A
N435      Mn1926   2.205       .  S
N436       N1923   1.312       .  A
N436       C1928   1.347       .  A
Mn437       N779   2.191       .  S
Mn437      N1177   2.232       .  S
Mn437      Cl811   2.567       .  S
Mn438      N1168   2.249       .  S
Mn438      N2663   2.149   1_455  S
Mn438      N1923   2.205       .  S
Mn438     Cl2299   2.546   1_455  S
Cl439     Mn1914   2.562   1_554  S
Cl439      Mn809   2.567   1_545  S
Cl439     Mn2298   2.546   1_545  S
C440       N1924   1.347       .  A
C440        C721   1.465       .  S
C441        C707   1.448       .  S
N442        N443   1.309       .  A
N442        N448   1.321       .  A
N443        C450   1.338       .  A
N444        N446   1.319       .  A
N444        N445   1.318       .  A
N444       Mn460   2.242       .  S
N445        C451   1.357       .  A
N446        N447   1.310       .  A
N446       Mn471   2.128       .  S
N447        C451   1.339       .  A
N448        N449   1.323   1_554  A
N449        C450   1.353   1_556  A
C450        C665   1.442   1_554  S
C451        C648   1.448       .  S
N452        N458   1.310       .  A
N452        N453   1.323       .  A
N453        C461   1.357       .  A
N454        N455   1.343       .  A
N454        N456   1.319       .  A
N455        C462   1.372       .  A
N456        N457   1.340       .  A
N456       Mn482   2.291       .  S
N457        C462   1.368       .  A
N458        N459   1.316       .  A
N458       Mn460   2.189       .  S
N459        C461   1.354       .  A
Mn460      Cl484   2.584       .  S
C461        C609   1.484       .  S
N463        N464   1.328       .  A
N463        N469   1.315       .  A
N463       Mn471   2.239       .  S
N464        C472   1.359       .  A
N465        N467   1.308   1_556  A
N465        N466   1.320       .  A
N465       Mn483   2.201       .  S
N466        C473   1.359       .  A
N467        N468   1.317       .  A
N468        C473   1.351   1_554  A
N469        N470   1.354       .  A
N470        C472   1.384       .  A
Mn471      Cl484   2.529       .  S
C473        C620   1.481       .  S
N474        N475   1.320       .  A
N474        N480   1.325       .  A
N474       Mn482   2.181       .  S
N475        C485   1.349       .  A
N476        N477   1.325       .  A
N476        N478   1.327       .  A
N477        C486   1.354       .  A
N478        N479   1.310       .  A
N479        C486   1.338       .  A
N480        N481   1.315       .  A
N480       Mn483   2.242       .  S
N481        C485   1.353       .  A
C485        C637   1.472       .  S
C486        C676   1.451       .  S
N487        N488   1.316       .  A
N487        N493   1.319       .  A
N487       Mn516   2.240       .  S
N488        C495   1.355       .  A
N489        N491   1.320       .  A
N489       N1978   1.324       .  A
N489       Mn505   2.271       .  S
N490       N1977   1.324       .  A
N490        C496   1.363       .  A
N491       N1980   1.314       .  A
N491       Mn516   2.150       .  S
N492       N1979   1.314       .  A
N492        C496   1.341       .  A
N493        N494   1.315       .  A
N493       Mn505   2.134       .  S
N494        C495   1.342       .  A
C495        C651   1.462       .  S
C496        C718   1.458       .  S
N497        N503   1.312       .  A
N497        N498   1.306       .  A
N497       Mn527   2.139       .  S
N498        C506   1.339       .  A
N499        N500   1.347       .  A
N499        N501   1.315       .  A
N499       Mn505   2.337       .  S
N500        C507   1.378       .  A
N501        N502   1.339       .  A
N501      Mn2015   2.286       .  S
N502        C507   1.370       .  A
N503        N504   1.323       .  A
N503      Mn1993   2.187   1_455  S
N504        C506   1.354       .  A
Mn505      N1991   2.186       .  S
Mn505      Cl529   2.556       .  S
C506        C592   1.464       .  S
N508        N509   1.345       .  A
N508        N514   1.315       .  A
N508      Mn2004   2.297   1_455  S
N509        C517   1.373       .  A
N510        N512   1.312       .  A
N510        N511   1.319       .  A
N510      Mn2016   2.164       .  S
N511        C518   1.347       .  A
N512        N513   1.320       .  A
N512       Mn516   2.195       .  S
N513        C518   1.350       .  A
N514        N515   1.340       .  A
N514       Mn528   2.319       .  S
N515        C517   1.375       .  A
Mn516      N1996   2.297       .  S
Mn516      Cl529   2.535       .  S
C518        C581   1.473       .  S
N519       N2008   1.309       .  A
N519        N525   1.315       .  A
N519       Mn527   2.115   1_655  S
N520       N2007   1.309       .  A
N520        C530   1.336       .  A
N521        N522   1.309       .  A
N521        N523   1.320       .  A
N521       Mn528   2.124       .  S
N522        C531   1.335       .  A
N523        N524   1.331       .  A
N523       Mn527   2.299       .  S
N524        C531   1.367       .  A
N525       N2014   1.324       .  A
N525       Mn528   2.263   1_655  S
N526       N2013   1.324       .  A
N526        C530   1.364       .  A
Mn527      N1989   2.286   1_455  S
Mn527     Cl2017   2.539       .  S
Mn528      N1998   2.164   1_455  S
Mn528     Cl2017   2.560       .  S
Cl529     Mn2015   2.539       .  S
Cl529     Mn2016   2.560       .  S
C530        C732   1.450       .  S
C531        C634   1.474       .  S
N532        N533   1.340       .  A
N532        N538   1.315       .  A
N532       Mn561   2.298       .  S
N533        C540   1.371       .  A
N534        N536   1.308   1_545  A
N534        N535   1.313       .  A
N534       Mn550   2.155       .  S
N535        C541   1.345       .  A
N536        N537   1.324       .  A
N536      Mn1305   2.198       .  S
N537        C541   1.356   1_565  A
N538        N539   1.337       .  A
N538      Mn1294   2.271       .  S
N539        C540   1.366       .  A
C541        C623   1.461       .  S
N542        N548   1.325       .  A
N542        N543   1.324       .  A
N542       Mn572   2.217       .  S
N543        C551   1.358       .  A
N544        N545   1.320       .  A
N544        N546   1.320       .  A
N544      Mn1294   2.171       .  S
N545        C552   1.348       .  A
N546        N547   1.310       .  A
N546      Mn1316   2.205       .  S
N547        C552   1.348       .  A
N548        N549   1.311       .  A
N548       Mn550   2.222       .  S
N549        C551   1.344       .  A
Mn550      N1282   2.271   1_545  S
Mn550      N1288   2.170       .  S
Mn550      Cl574   2.541       .  S
C551        C578   1.487       .  S
C552        C704   1.457       .  S
N553        N554   1.315       .  A
N553        N559   1.320       .  A
N553      Mn1305   2.217       .  S
N554        C562   1.347       .  A
N555        N557   1.324       .  A
N555        N556   1.316       .  A
N555       Mn573   2.226       .  S
N556        C563   1.349       .  A
N557        N558   1.317       .  A
N557       Mn561   2.193       .  S
N558        C563   1.348       .  A
N559        N560   1.318       .  A
N559      Mn1317   2.178       .  S
N560        C562   1.351       .  A
Mn561      N1280   2.199       .  S
Mn561      N1297   2.217       .  S
Mn561     Cl1318   2.557       .  S
C562        C690   1.464       .  S
C563        C595   1.474       .  S
N564        N565   1.325       .  A
N564        N570   1.313       .  A
N564      Mn1316   2.211       .  S
N565        C575   1.355       .  A
N566        N567   1.341       .  A
N566        N568   1.319       .  A
N566      Mn1317   2.293   1_545  S
N567        C576   1.369       .  A
N568        N569   1.343       .  A
N568       Mn572   2.322       .  S
N569        C576   1.376       .  A
N570        N571   1.315       .  A
N570       Mn573   2.174       .  S
N571        C575   1.348       .  A
Mn572      N1290   2.206       .  S
Mn572      N1308   2.211       .  S
Mn572      Cl574   2.567       .  S
Mn573      N1303   2.178       .  S
Mn573      N1310   2.293       .  S
Mn573     Cl1318   2.550       .  S
Cl574     Mn1305   2.558   1_545  S
Cl574     Mn1317   2.550   1_545  S
C575        C606   1.466       .  S
C577        C578   1.415       .  A
C577        C582   1.392       .  A
C577        H584   1.078       .  S
C578        C579   1.406       .  A
C579        C580   1.403       .  A
C579        N586   1.428       .  S
C580        C581   1.408       .  A
C580        H585   1.071       .  S
C581        C582   1.404       .  A
C582        N583   1.431       .  S
N583        O587   1.261       .  A
N583        O588   1.262       .  A
N586        O590   1.261       .  A
N586        O589   1.262       .  A
C591        C592   1.395       .  A
C591        C596   1.382       .  A
C591        H598   1.081       .  S
C592        C593   1.406       .  A
C593        C594   1.402       .  A
C593        N600   1.426       .  S
C594        C595   1.410       .  A
C594        H599   1.086       .  S
C595        C596   1.423       .  A
C596        N597   1.435       .  S
N597        O601   1.259       .  A
N597        O602   1.260       .  A
N600        O604   1.262       .  A
N600        O603   1.261       .  A
C605        C606   1.400       .  A
C605        C610   1.401       .  A
C605        H612   1.080       .  S
C606        C607   1.406       .  A
C607        C608   1.397       .  A
C607        N614   1.429       .  S
C608        C609   1.406       .  A
C608        H613   1.080       .  S
C609        C610   1.415       .  A
C610        N611   1.428       .  S
N611        O615   1.261       .  A
N611        O616   1.261       .  A
N614        O618   1.262       .  A
N614        O617   1.262       .  A
C619        C620   1.405       .  A
C619        C624   1.398       .  A
C619        H626   1.079       .  S
C620        C621   1.417       .  A
C621        C622   1.397       .  A
C621        N628   1.430       .  S
C622        C623   1.397       .  A
C622        H627   1.080       .  S
C623        C624   1.407       .  A
C624        N625   1.429       .  S
N625        O629   1.262       .  A
N625        O630   1.262       .  A
N628        O632   1.262       .  A
N628        O631   1.262   1_556  A
C633        C634   1.401       .  A
C633        C638   1.409       .  A
C633        H640   1.088       .  S
C634        C635   1.420       .  A
C635        C636   1.392       .  A
C635        N642   1.428       .  S
C636        C637   1.394       .  A
C636        H641   1.086       .  S
C637        C638   1.408       .  A
C638        N639   1.440       .  S
N639        O643   1.263       .  A
N639        O644   1.263       .  A
N642        O646   1.262       .  A
N642        O645   1.262       .  A
C647        C648   1.393       .  A
C647        C652   1.393       .  A
C647        H654   1.079       .  S
C648        C649   1.414       .  A
C649        C650   1.383       .  A
C649        N656   1.432       .  S
C650        C651   1.396       .  A
C650        H655   1.078       .  S
C651        C652   1.415       .  A
C652        N653   1.428       .  S
N653        O657   1.262       .  A
N653        O658   1.262       .  A
N656        O660   1.262       .  A
N656        O659   1.262       .  A
C661        C662   1.397   1_554  A
C661        C666   1.390       .  A
C661        H668   1.080       .  S
C662        C663   1.406       .  A
C663        C664   1.393       .  A
C663        N670   1.429       .  S
C664        C665   1.399       .  A
C664        H669   1.083       .  S
C665        C666   1.403   1_556  A
C666        N667   1.428       .  S
N667        O671   1.262       .  A
N667        O672   1.262       .  A
N670        O674   1.261       .  A
C675        C676   1.400       .  A
C675        C680   1.396       .  A
C675        H682   1.081       .  S
C676        C677   1.403       .  A
C677        C678   1.394       .  A
C677        N684   1.427       .  S
C678        C679   1.399       .  A
C678        H683   1.080       .  S
C679        C680   1.409       .  A
C680        N681   1.430       .  S
N681        O685   1.262       .  A
N681        O686   1.262       .  A
N684        O688   1.261       .  A
N684        O687   1.262       .  A
C689        C690   1.403       .  A
C689        C694   1.395       .  A
C689        H696   1.080   1_565  S
C690       C1435   1.411       .  A
C691       C1434   1.411       .  A
C691        C692   1.387       .  A
C691        N698   1.429       .  S
C692        C693   1.394       .  A
C692        H697   1.081       .  S
C693       C1438   1.406       .  A
C694       C1437   1.406       .  A
C694        N695   1.429   1_565  S
N695        O699   1.262       .  A
N695       O1444   1.262       .  A
N698        O702   1.261       .  A
N698       O1445   1.262       .  A
O700       N1439   1.262       .  A
O701       N1442   1.262       .  A
C703        C704   1.400       .  A
C703       C1452   1.385       .  A
C703        H710   1.080       .  S
C704        C705   1.410       .  A
C705       C1450   1.397       .  A
C705        N712   1.429       .  S
C706       C1449   1.396       .  A
C706        C707   1.400       .  A
C706        H711   1.080   1_545  S
C707        C708   1.399       .  A
C708       C1447   1.385       .  A
C708        N709   1.425       .  S
N709       O1457   1.261       .  A
N709        O714   1.262       .  A
N712       O1460   1.262       .  A
N712        O715   1.262       .  A
O713       N1453   1.261       .  A
O716       N1456   1.262       .  A
C717       C2206   1.402       .  A
C717        C722   1.392       .  A
C717        H724   1.082       .  S
C718       C2205   1.402   1_455  A
C718        C719   1.405       .  A
C719        C720   1.395       .  A
C719        N726   1.428       .  S
C720       C2209   1.405       .  A
C720        H725   1.082       .  S
C721       C2208   1.405       .  A
C721        C722   1.405       .  A
C722        N723   1.429       .  S
N723        O727   1.262       .  A
N723        O728   1.262       .  A
N726        O730   1.261       .  A
N726        O729   1.262       .  A
C731       C2220   1.403   1_455  A
C731        C736   1.390       .  A
C731        H738   1.074       .  S
C732       C2219   1.403       .  A
C732        C733   1.402       .  A
C733        C734   1.398       .  A
C733        N740   1.428       .  S
C734       C2223   1.410       .  A
C734        H739   1.071       .  S
C735       C2222   1.410       .  A
C735        C736   1.404   1_655  A
C736        N737   1.429       .  S
N737        O741   1.262       .  A
N737        O742   1.262       .  A
N740        O744   1.262       .  A
N740        O743   1.261       .  A
C745        C746   1.538       .  S
C745        C751   1.568       .  S
C745        C749   1.580       .  S
C745        C879   1.615       .  S
C746        H753   1.087       .  S
C746        C747   1.367       .  D
C747        C748   1.584       .  S
C747        C789   1.531       .  S
C748        C752   1.579       .  S
C748        C750   1.575       .  S
C748        H754   1.110       .  S
C749        H755   1.085       .  S
C749        C750   1.396       .  D
C750        C834   1.568       .  S
C751        H756   1.085       .  S
C751        C752   1.390       .  D
C752        C912   1.557       .  S
C757        C758   1.559       .  S
C757        C763   1.544       .  S
C757        C761   1.554       .  S
C757        C948   1.612       .  S
C758        H765   1.085       .  S
C758        C759   1.390       .  D
C759        C760   1.607       .  S
C759        C889   1.581       .  S
C760        C764   1.606       .  S
C760        C762   1.577       .  S
C760        H766   1.110       .  S
C761        H767   1.086       .  S
C761        C762   1.382       .  D
C762        C799   1.539       .  S
C763        H768   1.085       .  S
C763        C764   1.383       .  D
C764        C844   1.579       .  S
N769        N770   1.315       .  A
N769        N775   1.320       .  A
N770        C777   1.350       .  A
N771       N2261   1.321       .  A
N771        N772   1.310       .  A
N771       Mn787   2.200       .  S
N772       C2266   1.346       .  A
N773       N2259   1.321   1_455  A
N773        N774   1.323       .  A
N773       Mn798   2.187       .  S
N774        C778   1.353   1_455  A
N775        N776   1.319       .  A
N775      Mn1531   2.157   1_455  S
N776        C777   1.345       .  A
C777       C1065   1.449   1_545  S
C778       N2260   1.346       .  A
C778       C1107   1.466       .  S
N779        N785   1.309       .  A
N779       N1152   1.321       .  A
N780       N1151   1.321   1_554  A
N780       C1160   1.359   1_554  A
N781        N782   1.331       .  A
N781        N783   1.318       .  A
N782        C789   1.363       .  A
N783        N784   1.337       .  A
N783      Mn1181   2.279       .  S
N784        C789   1.365       .  A
N785        N786   1.310       .  A
N785       Mn787   2.148       .  S
N786        C788   1.340       .  A
Mn787      N1519   2.156       .  S
Mn787      Cl811   2.546       .  S
C788       N1152   1.359       .  A
C788       C1034   1.448       .  S
N790        N791   1.338       .  A
N790        N796   1.316       .  A
N790      Mn1170   2.282   1_554  S
N791        C799   1.366       .  A
N792       N1166   1.310   1_565  A
N792        N793   1.310       .  A
N792       Mn810   2.144       .  S
N793        C800   1.341       .  A
N794       N1164   1.310   1_545  A
N794        N795   1.323   1_545  A
N795       C1172   1.360       .  A
N796        N797   1.332       .  A
N797        C799   1.363       .  A
Mn798      N1162   2.282       .  S
Mn798     Cl2299   2.562   1_455  S
C800       N1167   1.360   1_554  A
C800       C1051   1.453       .  S
N801        N802   1.323       .  A
N801        N807   1.321       .  A
N801       Mn809   2.184       .  S
N802        C812   1.351       .  A
N803        N804   1.315       .  A
N803        N805   1.320       .  A
N803      Mn1554   2.149       .  S
N804        C813   1.341       .  A
N805        N806   1.319       .  A
N806        C813   1.353       .  A
N807       N2296   1.312       .  A
N807      Mn2298   2.205       .  S
N808       N2295   1.312       .  A
N808       C2300   1.347       .  A
Mn809      N1155   2.279   1_554  S
Mn810      N1547   2.148   1_465  S
Mn810      N2295   2.205       .  S
Mn810     Cl1927   2.545   1_465  S
Cl811     Mn2286   2.562       .  S
Cl811     Mn1926   2.546       .  S
C812       N2296   1.347       .  A
C812       C1093   1.464       .  S
C813       C1079   1.448       .  S
N814        N815   1.309       .  A
N814        N820   1.321       .  A
N814      Mn1215   2.181       .  S
N815        C822   1.338       .  A
N816        N818   1.319       .  A
N816        N817   1.318       .  A
N816       Mn832   2.241       .  S
N817        C823   1.356       .  A
N818        N819   1.310       .  A
N818       Mn843   2.129       .  S
N819        C823   1.339       .  A
N820        N821   1.323       .  A
N820      Mn1204   2.195       .  S
N821        C822   1.353       .  A
C822       C1037   1.443       .  S
C823       C1020   1.448       .  S
N824        N830   1.310   1_556  A
N824        N825   1.323       .  A
N824      Mn1226   2.197       .  S
N825        C833   1.357   1_556  A
N826        N827   1.343       .  A
N826        N828   1.319       .  A
N826      Mn1204   2.308       .  S
N827        C834   1.372       .  A
N828        N829   1.340       .  A
N828       Mn854   2.291       .  S
N829        C834   1.368       .  A
N830        N831   1.316       .  A
N830       Mn832   2.190       .  S
N831        C833   1.354       .  A
Mn832      N1192   2.195       .  S
Mn832      N1198   2.308   1_554  S
Mn832      Cl856   2.584   1_554  S
C833        C981   1.484       .  S
N835        N836   1.328       .  A
N835        N841   1.315       .  A
N835       Mn843   2.240       .  S
N836        C844   1.359       .  A
N837        N839   1.308       .  A
N837        N838   1.321       .  A
N837       Mn855   2.202       .  S
N838        C845   1.359       .  A
N839        N840   1.317       .  A
N839      Mn1215   2.170       .  S
N840        C845   1.351       .  A
N841        N842   1.354       .  A
N841      Mn1227   2.343   1_554  S
N842        C844   1.383       .  A
Mn843      N1186   2.181       .  S
Mn843      N1211   2.170       .  S
Mn843      Cl856   2.529   1_554  S
C845        C992   1.482       .  S
N846        N847   1.320       .  A
N846        N852   1.325       .  A
N846       Mn854   2.181       .  S
N847        C857   1.349       .  A
N848        N849   1.325   1_556  A
N848        N850   1.327       .  A
N848      Mn1227   2.223       .  S
N849        C858   1.354   1_554  A
N850        N851   1.311       .  A
N850      Mn1226   2.203       .  S
N851        C858   1.339       .  A
N852        N853   1.315       .  A
N852       Mn855   2.241       .  S
N853        C857   1.353       .  A
Mn854      N1196   2.197       .  S
Mn854      N1222   2.203       .  S
Mn854     Cl1228   2.549       .  S
Mn855      N1213   2.343       .  S
Mn855      N1220   2.223       .  S
Mn855     Cl1228   2.591       .  S
Cl856     Mn1226   2.549       .  S
Cl856     Mn1227   2.591       .  S
C857       C1009   1.472       .  S
C858       C1048   1.451   1_556  S
N859        N860   1.316       .  A
N859        N865   1.319       .  A
N859       Mn888   2.240       .  S
N860        C867   1.355       .  A
N861        N863   1.320       .  A
N861       N2350   1.324       .  A
N861       Mn877   2.270       .  S
N862       N2349   1.324       .  A
N862        C868   1.363       .  A
N863       N2352   1.314       .  A
N863       Mn888   2.150       .  S
N864       N2351   1.314       .  A
N864        C868   1.341       .  A
N865        N866   1.315       .  A
N865       Mn877   2.134       .  S
N866        C867   1.342       .  A
C867       C1023   1.462       .  S
C868       C1090   1.458       .  S
N869        N875   1.312       .  A
N869        N870   1.306       .  A
N869       Mn899   2.139       .  S
N870        C878   1.339       .  A
N871        N872   1.347       .  A
N871        N873   1.315       .  A
N871       Mn877   2.337       .  S
N872        C879   1.378       .  A
N873        N874   1.339       .  A
N873      Mn2387   2.286       .  S
N874        C879   1.370       .  A
N875        N876   1.323       .  A
N875      Mn2365   2.186   1_455  S
N876        C878   1.354       .  A
Mn877      N2363   2.186       .  S
Mn877      Cl901   2.556       .  S
C878        C964   1.464       .  S
N880        N881   1.345       .  A
N880        N886   1.315       .  A
N880      Mn2376   2.297   1_455  S
N881        C889   1.372       .  A
N882        N884   1.312       .  A
N882        N883   1.319       .  A
N882      Mn2388   2.164       .  S
N883        C890   1.347       .  A
N884        N885   1.320       .  A
N884       Mn888   2.194       .  S
N885        C890   1.349       .  A
N886        N887   1.340       .  A
N886       Mn900   2.319       .  S
N887        C889   1.375       .  A
Mn888      N2368   2.297       .  S
Mn888      Cl901   2.535       .  S
C890        C953   1.473       .  S
N891       N2380   1.309       .  A
N891        N897   1.315       .  A
N891       Mn899   2.115   1_655  S
N892       N2379   1.309       .  A
N892        C902   1.336       .  A
N893        N894   1.309       .  A
N893        N895   1.320       .  A
N893       Mn900   2.125       .  S
N894        C903   1.335       .  A
N895        N896   1.331       .  A
N895       Mn899   2.299       .  S
N896        C903   1.367       .  A
N897       N2386   1.324       .  A
N897       Mn900   2.263   1_655  S
N898       N2385   1.324       .  A
N898        C902   1.364       .  A
Mn899      N2361   2.286   1_455  S
Mn899     Cl2389   2.539       .  S
Mn900      N2370   2.164   1_455  S
Mn900     Cl2389   2.560       .  S
Cl901     Mn2387   2.539       .  S
Cl901     Mn2388   2.560       .  S
C902       C1104   1.450       .  S
C903       C1006   1.474       .  S
N904        N905   1.340       .  A
N904        N910   1.315       .  A
N904       Mn933   2.298       .  S
N905        C912   1.371       .  A
N906        N908   1.308       .  A
N906        N907   1.313       .  A
N906       Mn922   2.155       .  S
N907        C913   1.345       .  A
N908        N909   1.324       .  A
N909        C913   1.356       .  A
N910        N911   1.337       .  A
N911        C912   1.366       .  A
C913        C995   1.461       .  S
N914        N920   1.325       .  A
N914        N915   1.324       .  A
N914       Mn944   2.217       .  S
N915        C923   1.358       .  A
N916        N917   1.320       .  A
N916        N918   1.320       .  A
N917        C924   1.348       .  A
N918        N919   1.311       .  A
N919        C924   1.349       .  A
N920        N921   1.311       .  A
N920       Mn922   2.222       .  S
N921        C923   1.344       .  A
Mn922      Cl946   2.541       .  S
C923        C950   1.486       .  S
C924       C1076   1.457       .  S
N925        N926   1.315       .  A
N925        N931   1.320       .  A
N926        C934   1.347       .  A
N927        N929   1.324       .  A
N927        N928   1.316       .  A
N927       Mn945   2.226       .  S
N928        C935   1.349       .  A
N929        N930   1.317       .  A
N929       Mn933   2.192       .  S
N930        C935   1.348       .  A
N931        N932   1.318       .  A
N932        C934   1.351       .  A
C934       C1062   1.463       .  S
C935        C967   1.474       .  S
N936        N937   1.325       .  A
N936        N942   1.313   1_545  A
N937        C947   1.355   1_545  A
N938        N939   1.341       .  A
N938        N940   1.319       .  A
N939        C948   1.369       .  A
N940        N941   1.343       .  A
N940       Mn944   2.322       .  S
N941        C948   1.376       .  A
N942        N943   1.315       .  A
N942       Mn945   2.174       .  S
N943        C947   1.348       .  A
Mn944      Cl946   2.567       .  S
C947        C978   1.466       .  S
C949        C950   1.415       .  A
C949        C954   1.392       .  A
C949        H956   1.078       .  S
C950        C951   1.406       .  A
C951        C952   1.403       .  A
C951        N958   1.428       .  S
C952        C953   1.408       .  A
C952        H957   1.072       .  S
C953        C954   1.404       .  A
C954        N955   1.431       .  S
N955        O959   1.261       .  A
N955        O960   1.262       .  A
N958        O962   1.261       .  A
N958        O961   1.262       .  A
C963        C964   1.394       .  A
C963        C968   1.382       .  A
C963        H970   1.081       .  S
C964        C965   1.406       .  A
C965        C966   1.402       .  A
C965        N972   1.426       .  S
C966        C967   1.410       .  A
C966        H971   1.086       .  S
C967        C968   1.423       .  A
C968        N969   1.435       .  S
N969        O973   1.259       .  A
N969        O974   1.260       .  A
N972        O976   1.262       .  A
N972        O975   1.261       .  A
C977        C978   1.400       .  A
C977        C982   1.401       .  A
C977        H984   1.080       .  S
C978        C979   1.406       .  A
C979        C980   1.397       .  A
C979        N986   1.429       .  S
C980        C981   1.406       .  A
C980        H985   1.080       .  S
C981        C982   1.415       .  A
C982        N983   1.428       .  S
N983        O987   1.261       .  A
N983        O988   1.261   1_554  A
N986        O990   1.262       .  A
N986        O989   1.262       .  A
C991        C992   1.405       .  A
C991        C996   1.399       .  A
C991        H998   1.079       .  S
C992        C993   1.417       .  A
C993        C994   1.397       .  A
C993       N1000   1.430       .  S
C994        C995   1.397       .  A
C994        H999   1.080       .  S
C995        C996   1.407       .  A
C996        N997   1.429       .  S
N997       O1001   1.262       .  A
N997       O1002   1.262       .  A
N1000      O1004   1.262       .  A
N1000      O1003   1.262       .  A
C1005      C1006   1.402       .  A
C1005      C1010   1.409       .  A
C1005      H1012   1.088       .  S
C1006      C1007   1.420       .  A
C1007      C1008   1.392       .  A
C1007      N1014   1.428       .  S
C1008      C1009   1.394       .  A
C1008      H1013   1.086       .  S
C1009      C1010   1.408       .  A
C1010      N1011   1.440       .  S
N1011      O1015   1.263       .  A
N1011      O1016   1.263       .  A
N1014      O1018   1.262       .  A
N1014      O1017   1.262       .  A
C1019      C1020   1.393       .  A
C1019      C1024   1.393       .  A
C1019      H1026   1.079       .  S
C1020      C1021   1.414       .  A
C1021      C1022   1.383       .  A
C1021      N1028   1.432       .  S
C1022      C1023   1.396       .  A
C1022      H1027   1.078       .  S
C1023      C1024   1.415       .  A
C1024      N1025   1.428       .  S
N1025      O1029   1.262       .  A
N1025      O1030   1.262       .  A
N1028      O1032   1.262       .  A
N1028      O1031   1.262       .  A
C1033      C1034   1.397       .  A
C1033      C1038   1.390       .  A
C1033      H1040   1.080       .  S
C1034      C1035   1.406       .  A
C1035      C1036   1.393       .  A
C1035      N1042   1.429       .  S
C1036      C1037   1.399       .  A
C1036      H1041   1.082       .  S
C1037      C1038   1.403       .  A
C1038      N1039   1.428       .  S
N1039      O1043   1.262       .  A
N1039      O1044   1.262       .  A
N1042      O1046   1.261       .  A
N1042      O1417   1.261       .  A
O1045      N1414   1.261       .  A
C1047      C1048   1.400       .  A
C1047      C1052   1.396       .  A
C1047      H1054   1.081       .  S
C1048      C1049   1.403   1_554  A
C1049      C1050   1.394       .  A
C1049      N1056   1.427       .  S
C1050      C1051   1.399   1_556  A
C1050      H1055   1.081       .  S
C1051      C1052   1.409       .  A
C1052      N1053   1.430       .  S
N1053      O1057   1.262       .  A
N1053      O1058   1.262       .  A
N1056      O1060   1.261       .  A
N1056      O1059   1.262       .  A
C1061      C1062   1.403       .  A
C1061      C1066   1.395       .  A
C1061      H1068   1.080       .  S
C1063      C1064   1.387       .  A
C1063      N1070   1.428       .  S
C1064      C1065   1.394       .  A
C1064      H1069   1.081       .  S
C1066      N1067   1.429       .  S
N1067      O1071   1.262       .  A
N1070      O1074   1.261       .  A
C1075      C1076   1.399       .  A
C1075      H1082   1.080       .  S
C1076      C1077   1.410       .  A
C1077      N1084   1.429   1_545  S
C1078      C1079   1.400       .  A
C1078      H1083   1.080       .  S
C1079      C1080   1.399       .  A
C1080      N1081   1.425       .  S
N1081      O1086   1.262       .  A
N1084      O1087   1.262       .  A
C1089      C2578   1.402       .  A
C1089      C1094   1.392       .  A
C1089      H1096   1.082       .  S
C1090      C2577   1.402   1_455  A
C1090      C1091   1.405       .  A
C1091      C1092   1.395       .  A
C1091      N1098   1.428       .  S
C1092      C2581   1.405       .  A
C1092      H1097   1.082       .  S
C1093      C2580   1.405       .  A
C1093      C1094   1.405       .  A
C1094      N1095   1.429       .  S
N1095      O1099   1.262       .  A
N1095      O1100   1.262       .  A
N1098      O1102   1.261       .  A
N1098      O1101   1.262       .  A
C1103      C2592   1.403   1_455  A
C1103      C1108   1.390       .  A
C1103      H1110   1.073       .  S
C1104      C2591   1.403       .  A
C1104      C1105   1.402       .  A
C1105      C1106   1.398       .  A
C1105      N1112   1.428       .  S
C1106      C2595   1.410       .  A
C1106      H1111   1.070       .  S
C1107      C2594   1.410       .  A
C1107      C1108   1.403   1_655  A
C1108      N1109   1.429       .  S
N1109      O1113   1.262       .  A
N1109      O1114   1.262       .  A
N1112      O1116   1.262       .  A
N1112      O1115   1.261       .  A
C1117      C1118   1.538       .  S
C1117      C1123   1.568       .  S
C1117      C1121   1.580       .  S
C1117      C1251   1.615       .  S
C1118      H1125   1.087       .  S
C1118      C1119   1.367       .  D
C1119      C1120   1.584       .  S
C1119      C1161   1.531       .  S
C1120      C1124   1.579       .  S
C1120      C1122   1.575       .  S
C1120      H1126   1.110       .  S
C1121      H1127   1.085       .  S
C1121      C1122   1.396       .  D
C1122      C1206   1.568       .  S
C1123      H1128   1.085       .  S
C1123      C1124   1.390       .  D
C1124      C1284   1.557       .  S
C1129      C1130   1.559       .  S
C1129      C1135   1.544       .  S
C1129      C1133   1.554       .  S
C1129      C1320   1.612       .  S
C1130      H1137   1.085       .  S
C1130      C1131   1.390       .  D
C1131      C1132   1.607       .  S
C1131      C1261   1.581       .  S
C1132      C1136   1.606       .  S
C1132      C1134   1.577       .  S
C1132      H1138   1.110       .  S
C1133      H1139   1.086       .  S
C1133      C1134   1.382       .  D
C1134      C1171   1.538       .  S
C1135      H1140   1.085       .  S
C1135      C1136   1.383       .  D
C1136      C1216   1.580       .  S
N1141      N1142   1.315       .  A
N1141      N1147   1.320       .  A
N1142      C1149   1.350       .  A
N1143      N2633   1.321       .  A
N1143      N1144   1.310       .  A
N1143     Mn1159   2.201       .  S
N1144      C2638   1.346       .  A
N1145      N2631   1.321   1_455  A
N1145      N1146   1.323       .  A
N1145     Mn1170   2.187       .  S
N1146      C1150   1.353   1_455  A
N1147      N1148   1.319       .  A
N1147     Mn1903   2.157   1_455  S
N1148      C1149   1.345       .  A
C1149      C1437   1.449   1_545  S
C1150      N2632   1.346       .  A
C1150      C1479   1.466       .  S
N1151      N1157   1.309       .  A
N1153      N1154   1.331       .  A
N1153      N1155   1.318       .  A
N1154      C1161   1.363       .  A
N1155      N1156   1.337       .  A
N1156      C1161   1.365       .  A
N1157      N1158   1.310       .  A
N1157     Mn1159   2.148       .  S
N1158      C1160   1.340       .  A
Mn1159     N1891   2.156       .  S
Mn1159    Cl1183   2.546   1_556  S
C1160      C1406   1.448       .  S
N1162      N1163   1.338       .  A
N1162      N1168   1.316       .  A
N1163      C1171   1.366       .  A
N1164      N1165   1.310       .  A
N1164     Mn1182   2.144       .  S
N1165      C1172   1.341       .  A
N1166      N1167   1.323   1_544  A
N1168      N1169   1.332       .  A
N1169      C1171   1.363       .  A
Mn1170    Cl2671   2.562   1_456  S
C1172      C1423   1.453       .  S
N1173      N1174   1.323       .  A
N1173      N1179   1.321       .  A
N1173     Mn1181   2.184       .  S
N1174      C1184   1.351       .  A
N1175      N1176   1.315       .  A
N1175      N1177   1.320       .  A
N1175     Mn1926   2.149       .  S
N1176      C1185   1.341       .  A
N1177      N1178   1.319       .  A
N1178      C1185   1.353       .  A
N1179      N2668   1.312       .  A
N1179     Mn2670   2.205       .  S
N1180      N2667   1.312       .  A
N1180      C2672   1.347       .  A
Mn1182     N1919   2.148   1_465  S
Mn1182     N2667   2.205       .  S
Mn1182    Cl1555   2.545   1_465  S
Cl1183    Mn2658   2.562   1_554  S
Cl1183    Mn1554   2.546       .  S
C1184      N2668   1.347       .  A
C1184      C1465   1.464       .  S
C1185      C1451   1.448       .  S
N1186      N1187   1.309       .  A
N1186      N1192   1.321       .  A
N1187      C1194   1.338       .  A
N1188      N1190   1.319       .  A
N1188      N1189   1.318       .  A
N1188     Mn1204   2.241       .  S
N1189      C1195   1.356       .  A
N1190      N1191   1.310       .  A
N1190     Mn1215   2.129       .  S
N1191      C1195   1.339       .  A
N1192      N1193   1.323   1_554  A
N1193      C1194   1.353   1_556  A
C1194      C1409   1.443   1_554  S
C1195      C1392   1.448       .  S
N1196      N1202   1.310       .  A
N1196      N1197   1.323       .  A
N1197      C1205   1.357       .  A
N1198      N1199   1.343       .  A
N1198      N1200   1.319       .  A
N1199      C1206   1.372       .  A
N1200      N1201   1.340       .  A
N1200     Mn1226   2.291       .  S
N1201      C1206   1.368       .  A
N1202      N1203   1.316       .  A
N1202     Mn1204   2.190       .  S
N1203      C1205   1.354       .  A
Mn1204    Cl1228   2.584       .  S
C1205      C1353   1.484       .  S
N1207      N1208   1.328       .  A
N1207      N1213   1.315       .  A
N1207     Mn1215   2.240       .  S
N1208      C1216   1.359       .  A
N1209      N1211   1.308   1_556  A
N1209      N1210   1.321       .  A
N1209     Mn1227   2.202       .  S
N1210      C1217   1.359       .  A
N1211      N1212   1.317       .  A
N1212      C1217   1.351   1_554  A
N1213      N1214   1.354       .  A
N1214      C1216   1.383       .  A
Mn1215    Cl1228   2.529       .  S
C1217      C1364   1.482       .  S
N1218      N1219   1.320       .  A
N1218      N1224   1.325       .  A
N1218     Mn1226   2.181       .  S
N1219      C1229   1.349       .  A
N1220      N1221   1.325       .  A
N1220      N1222   1.327       .  A
N1221      C1230   1.354       .  A
N1222      N1223   1.311       .  A
N1223      C1230   1.339       .  A
N1224      N1225   1.315       .  A
N1224     Mn1227   2.241       .  S
N1225      C1229   1.353       .  A
C1229      C1381   1.472       .  S
C1230      C1420   1.451       .  S
N1231      N1232   1.316       .  A
N1231      N1237   1.319       .  A
N1231     Mn1260   2.240       .  S
N1232      C1239   1.355       .  A
N1233      N1235   1.320       .  A
N1233      N2722   1.324       .  A
N1233     Mn1249   2.270       .  S
N1234      N2721   1.324       .  A
N1234      C1240   1.363       .  A
N1235      N2724   1.314       .  A
N1235     Mn1260   2.150       .  S
N1236      N2723   1.314       .  A
N1236      C1240   1.341       .  A
N1237      N1238   1.315       .  A
N1237     Mn1249   2.134       .  S
N1238      C1239   1.342       .  A
C1239      C1395   1.462       .  S
C1240      C1462   1.458       .  S
N1241      N1247   1.312       .  A
N1241      N1242   1.306       .  A
N1241     Mn1271   2.139       .  S
N1242      C1250   1.339       .  A
N1243      N1244   1.346       .  A
N1243      N1245   1.315       .  A
N1243     Mn1249   2.337       .  S
N1244      C1251   1.378       .  A
N1245      N1246   1.339       .  A
N1245     Mn2759   2.286       .  S
N1246      C1251   1.370       .  A
N1247      N1248   1.323       .  A
N1247     Mn2737   2.186   1_455  S
N1248      C1250   1.354       .  A
Mn1249     N2735   2.186       .  S
Mn1249    Cl1273   2.556       .  S
C1250      C1336   1.464       .  S
N1252      N1253   1.345       .  A
N1252      N1258   1.315       .  A
N1252     Mn2748   2.297   1_455  S
N1253      C1261   1.372       .  A
N1254      N1256   1.312       .  A
N1254      N1255   1.319       .  A
N1254     Mn2760   2.164       .  S
N1255      C1262   1.347       .  A
N1256      N1257   1.320       .  A
N1256     Mn1260   2.194       .  S
N1257      C1262   1.349       .  A
N1258      N1259   1.340       .  A
N1258     Mn1272   2.319       .  S
N1259      C1261   1.375       .  A
Mn1260     N2740   2.297       .  S
Mn1260    Cl1273   2.535       .  S
C1262      C1325   1.473       .  S
N1263      N2752   1.309       .  A
N1263      N1269   1.315       .  A
N1263     Mn1271   2.115   1_655  S
N1264      N2751   1.309       .  A
N1264      C1274   1.336       .  A
N1265      N1266   1.309       .  A
N1265      N1267   1.320       .  A
N1265     Mn1272   2.125       .  S
N1266      C1275   1.335       .  A
N1267      N1268   1.331       .  A
N1267     Mn1271   2.299       .  S
N1268      C1275   1.367       .  A
N1269      N2758   1.324       .  A
N1269     Mn1272   2.263   1_655  S
N1270      N2757   1.324       .  A
N1270      C1274   1.364       .  A
Mn1271     N2733   2.286   1_455  S
Mn1271    Cl2761   2.539       .  S
Mn1272     N2742   2.164   1_455  S
Mn1272    Cl2761   2.560       .  S
Cl1273    Mn2759   2.539       .  S
Cl1273    Mn2760   2.560       .  S
C1274      C1476   1.450       .  S
C1275      C1378   1.474       .  S
N1276      N1277   1.340       .  A
N1276      N1282   1.315       .  A
N1276     Mn1305   2.298       .  S
N1277      C1284   1.371       .  A
N1278      N1280   1.308       .  A
N1278      N1279   1.313       .  A
N1278     Mn1294   2.155       .  S
N1279      C1285   1.345       .  A
N1280      N1281   1.324       .  A
N1281      C1285   1.356       .  A
N1282      N1283   1.337       .  A
N1283      C1284   1.366       .  A
C1285      C1367   1.461       .  S
N1286      N1292   1.325       .  A
N1286      N1287   1.324       .  A
N1286     Mn1316   2.218       .  S
N1287      C1295   1.358       .  A
N1288      N1289   1.320       .  A
N1288      N1290   1.320       .  A
N1289      C1296   1.348       .  A
N1290      N1291   1.311       .  A
N1291      C1296   1.349       .  A
N1292      N1293   1.311       .  A
N1292     Mn1294   2.222       .  S
N1293      C1295   1.344       .  A
Mn1294    Cl1318   2.541       .  S
C1295      C1322   1.486       .  S
C1296      C1448   1.457       .  S
N1297      N1298   1.315       .  A
N1297      N1303   1.320       .  A
N1298      C1306   1.347       .  A
N1299      N1301   1.324       .  A
N1299      N1300   1.316       .  A
N1299     Mn1317   2.226       .  S
N1300      C1307   1.349       .  A
N1301      N1302   1.317       .  A
N1301     Mn1305   2.192       .  S
N1302      C1307   1.348       .  A
N1303      N1304   1.318       .  A
N1304      C1306   1.351       .  A
C1306      C1434   1.463       .  S
C1307      C1339   1.474       .  S
N1308      N1309   1.325       .  A
N1308      N1314   1.313   1_545  A
N1309      C1319   1.355   1_545  A
N1310      N1311   1.341       .  A
N1310      N1312   1.319       .  A
N1311      C1320   1.369       .  A
N1312      N1313   1.343       .  A
N1312     Mn1316   2.322       .  S
N1313      C1320   1.376       .  A
N1314      N1315   1.315       .  A
N1314     Mn1317   2.174       .  S
N1315      C1319   1.348       .  A
Mn1316    Cl1318   2.567       .  S
C1319      C1350   1.466       .  S
C1321      C1322   1.415       .  A
C1321      C1326   1.392       .  A
C1321      H1328   1.078       .  S
C1322      C1323   1.406       .  A
C1323      C1324   1.403       .  A
C1323      N1330   1.428       .  S
C1324      C1325   1.408       .  A
C1324      H1329   1.072       .  S
C1325      C1326   1.404       .  A
C1326      N1327   1.431       .  S
N1327      O1331   1.261       .  A
N1327      O1332   1.262       .  A
N1330      O1334   1.261       .  A
N1330      O1333   1.262       .  A
C1335      C1336   1.394       .  A
C1335      C1340   1.382       .  A
C1335      H1342   1.081       .  S
C1336      C1337   1.406       .  A
C1337      C1338   1.402       .  A
C1337      N1344   1.426       .  S
C1338      C1339   1.410       .  A
C1338      H1343   1.086       .  S
C1339      C1340   1.423       .  A
C1340      N1341   1.435       .  S
N1341      O1345   1.259       .  A
N1341      O1346   1.260       .  A
N1344      O1348   1.262       .  A
N1344      O1347   1.261       .  A
C1349      C1350   1.400       .  A
C1349      C1354   1.401       .  A
C1349      H1356   1.080       .  S
C1350      C1351   1.406       .  A
C1351      C1352   1.397       .  A
C1351      N1358   1.429       .  S
C1352      C1353   1.407       .  A
C1352      H1357   1.080       .  S
C1353      C1354   1.415       .  A
C1354      N1355   1.428       .  S
N1355      O1359   1.261       .  A
N1355      O1360   1.261       .  A
N1358      O1362   1.262       .  A
N1358      O1361   1.262       .  A
C1363      C1364   1.405       .  A
C1363      C1368   1.399       .  A
C1363      H1370   1.079       .  S
C1364      C1365   1.417       .  A
C1365      C1366   1.397       .  A
C1365      N1372   1.430       .  S
C1366      C1367   1.397       .  A
C1366      H1371   1.080       .  S
C1367      C1368   1.407       .  A
C1368      N1369   1.429       .  S
N1369      O1373   1.262       .  A
N1369      O1374   1.262       .  A
N1372      O1376   1.262       .  A
N1372      O1375   1.262   1_556  A
C1377      C1378   1.402       .  A
C1377      C1382   1.409       .  A
C1377      H1384   1.088       .  S
C1378      C1379   1.420       .  A
C1379      C1380   1.392       .  A
C1379      N1386   1.428       .  S
C1380      C1381   1.394       .  A
C1380      H1385   1.086       .  S
C1381      C1382   1.408       .  A
C1382      N1383   1.440       .  S
N1383      O1387   1.263       .  A
N1383      O1388   1.263       .  A
N1386      O1390   1.262       .  A
N1386      O1389   1.262       .  A
C1391      C1392   1.393       .  A
C1391      C1396   1.393       .  A
C1391      H1398   1.079       .  S
C1392      C1393   1.414       .  A
C1393      C1394   1.383       .  A
C1393      N1400   1.432       .  S
C1394      C1395   1.396       .  A
C1394      H1399   1.078       .  S
C1395      C1396   1.415       .  A
C1396      N1397   1.428       .  S
N1397      O1401   1.262       .  A
N1397      O1402   1.262       .  A
N1400      O1404   1.262       .  A
N1400      O1403   1.262       .  A
C1405      C1406   1.397   1_554  A
C1405      C1410   1.390       .  A
C1405      H1412   1.080       .  S
C1406      C1407   1.406       .  A
C1407      C1408   1.393       .  A
C1407      N1414   1.429       .  S
C1408      C1409   1.399       .  A
C1408      H1413   1.082       .  S
C1409      C1410   1.403   1_556  A
C1410      N1411   1.428       .  S
N1411      O1415   1.262       .  A
N1411      O1416   1.262       .  A
N1414      O1418   1.261       .  A
C1419      C1420   1.400       .  A
C1419      C1424   1.396       .  A
C1419      H1426   1.081       .  S
C1420      C1421   1.403       .  A
C1421      C1422   1.394       .  A
C1421      N1428   1.427       .  S
C1422      C1423   1.399       .  A
C1422      H1427   1.081       .  S
C1423      C1424   1.409       .  A
C1424      N1425   1.430       .  S
N1425      O1429   1.262       .  A
N1425      O1430   1.262       .  A
N1428      O1432   1.261       .  A
N1428      O1431   1.262       .  A
C1433      C1434   1.403       .  A
C1433      C1438   1.395       .  A
C1433      H1440   1.080       .  S
C1435      C1436   1.387       .  A
C1435      N1442   1.428       .  S
C1436      C1437   1.394       .  A
C1436      H1441   1.081       .  S
C1438      N1439   1.429       .  S
N1439      O1443   1.262       .  A
N1442      O1446   1.261       .  A
C1447      C1448   1.399       .  A
C1447      H1454   1.080       .  S
C1448      C1449   1.410       .  A
C1449      N1456   1.429   1_545  S
C1450      C1451   1.400       .  A
C1450      H1455   1.080       .  S
C1451      C1452   1.399       .  A
C1452      N1453   1.425       .  S
N1453      O1458   1.262       .  A
N1456      O1459   1.262       .  A
C1461      C2950   1.402       .  A
C1461      C1466   1.392       .  A
C1461      H1468   1.082       .  S
C1462      C2949   1.402   1_455  A
C1462      C1463   1.405       .  A
C1463      C1464   1.395       .  A
C1463      N1470   1.428       .  S
C1464      C2953   1.405       .  A
C1464      H1469   1.082       .  S
C1465      C2952   1.405       .  A
C1465      C1466   1.405       .  A
C1466      N1467   1.429       .  S
N1467      O1471   1.262       .  A
N1467      O1472   1.262       .  A
N1470      O1474   1.261       .  A
N1470      O1473   1.262       .  A
C1475      C2964   1.403   1_455  A
C1475      C1480   1.390       .  A
C1475      H1482   1.073       .  S
C1476      C2963   1.403       .  A
C1476      C1477   1.402       .  A
C1477      C1478   1.398       .  A
C1477      N1484   1.428       .  S
C1478      C2967   1.410       .  A
C1478      H1483   1.070       .  S
C1479      C2966   1.410       .  A
C1479      C1480   1.403   1_655  A
C1480      N1481   1.429       .  S
N1481      O1485   1.262       .  A
N1481      O1486   1.262       .  A
N1484      O1488   1.262       .  A
N1484      O1487   1.261       .  A
C1489      C1490   1.538       .  S
C1489      C1495   1.568       .  S
C1489      C1493   1.580       .  S
C1489      C1623   1.614       .  S
C1490      H1497   1.087       .  S
C1490      C1491   1.367       .  D
C1491      C1492   1.584       .  S
C1491      C1533   1.531       .  S
C1492      C1496   1.579       .  S
C1492      C1494   1.575       .  S
C1492      H1498   1.110       .  S
C1493      H1499   1.085       .  S
C1493      C1494   1.396       .  D
C1494      C1578   1.569       .  S
C1495      H1500   1.085       .  S
C1495      C1496   1.390       .  D
C1496      C1656   1.556       .  S
C1501      C1502   1.559       .  S
C1501      C1507   1.544       .  S
C1501      C1505   1.554       .  S
C1501      C1692   1.612       .  S
C1502      H1509   1.085       .  S
C1502      C1503   1.390       .  D
C1503      C1504   1.607       .  S
C1503      C1633   1.581       .  S
C1504      C1508   1.606       .  S
C1504      C1506   1.576       .  S
C1504      H1510   1.110       .  S
C1505      H1511   1.086       .  S
C1505      C1506   1.382       .  D
C1506      C1543   1.538       .  S
C1507      H1512   1.085       .  S
C1507      C1508   1.383       .  D
C1508      C1588   1.580       .  S
N1513      N1514   1.315       .  A
N1513      N1519   1.320       .  A
N1513     Mn2286   2.223       .  S
N1514      C1521   1.350       .  A
N1515      N1516   1.310       .  A
N1515     Mn1531   2.200       .  S
N1517      N1518   1.323       .  A
N1517     Mn1542   2.187       .  S
N1518      C1522   1.353       .  A
N1519      N1520   1.319       .  A
N1520      C1521   1.345       .  A
C1521      C1809   1.449       .  S
C1522      C1851   1.466       .  S
N1523      N1529   1.309       .  A
N1523      N1896   1.320       .  A
N1523     Mn2669   2.190   1_545  S
N1524      N1895   1.320   1_554  A
N1524      C1904   1.359   1_554  A
N1525      N1526   1.331       .  A
N1525      N1527   1.318       .  A
N1525     Mn2275   2.250       .  S
N1526      C1533   1.363       .  A
N1527      N1528   1.337       .  A
N1527     Mn1925   2.278       .  S
N1528      C1533   1.365       .  A
N1529      N1530   1.310       .  A
N1529     Mn1531   2.148       .  S
N1530      C1532   1.340       .  A
Mn1531     N2269   2.250   1_545  S
Mn1531    Cl1555   2.545       .  S
C1532      N1896   1.359       .  A
C1532      C1778   1.448       .  S
N1534      N1535   1.338       .  A
N1534      N1540   1.316       .  A
N1534     Mn1914   2.282   1_554  S
N1535      C1543   1.366       .  A
N1536      N1910   1.310       .  A
N1536      N1537   1.310       .  A
N1536     Mn1554   2.144       .  S
N1537      C1544   1.340       .  A
N1538      N1908   1.310       .  A
N1538      N1539   1.323       .  A
N1538     Mn2286   2.211       .  S
N1539      C1916   1.360       .  A
N1540      N1541   1.332       .  A
N1540     Mn2298   2.249   1_545  S
N1541      C1543   1.363       .  A
Mn1542     N2257   2.223       .  S
Mn1542     N1906   2.282       .  S
Mn1542     N2282   2.212       .  S
C1544      N1911   1.360   1_554  A
C1544      C1795   1.452       .  S
N1545      N1546   1.323       .  A
N1545      N1551   1.321   1_655  A
N1545     Mn1553   2.184       .  S
N1546      C1556   1.351   1_655  A
N1547      N1548   1.315       .  A
N1547      N1549   1.320       .  A
N1548      C1557   1.341       .  A
N1549      N1550   1.319       .  A
N1549     Mn2297   2.234   1_545  S
N1550      C1557   1.353       .  A
Mn1553     N2639   2.191   1_554  S
Mn1553     N1899   2.278   1_554  S
Mn1553     N2293   2.233       .  S
Mn1553    Cl2671   2.567       .  S
Mn1554     N2284   2.249       .  S
Cl1555    Mn2669   2.567   1_545  S
C1556      C1837   1.464       .  S
C1557      C1823   1.448       .  S
N1558      N1559   1.309       .  A
N1558      N1564   1.321       .  A
N1558     Mn1959   2.181       .  S
N1559      C1566   1.338       .  A
N1560      N1562   1.319       .  A
N1560      N1561   1.318       .  A
N1560     Mn1576   2.241       .  S
N1561      C1567   1.356       .  A
N1562      N1563   1.310       .  A
N1562     Mn1587   2.128       .  S
N1563      C1567   1.339       .  A
N1564      N1565   1.323       .  A
N1564     Mn1948   2.195       .  S
N1565      C1566   1.353       .  A
C1566      C1781   1.442       .  S
C1567      C1764   1.448       .  S
N1568      N1574   1.310   1_556  A
N1568      N1569   1.323       .  A
N1568     Mn1970   2.197       .  S
N1569      C1577   1.357   1_556  A
N1570      N1571   1.343       .  A
N1570      N1572   1.319       .  A
N1570     Mn1948   2.308       .  S
N1571      C1578   1.372       .  A
N1572      N1573   1.340       .  A
N1572     Mn1598   2.292       .  S
N1573      C1578   1.368       .  A
N1574      N1575   1.316       .  A
N1574     Mn1576   2.189       .  S
N1575      C1577   1.354       .  A
Mn1576     N1936   2.195       .  S
Mn1576     N1942   2.308   1_554  S
Mn1576    Cl1600   2.584   1_554  S
C1577      C1725   1.484       .  S
N1579      N1580   1.328       .  A
N1579      N1585   1.315       .  A
N1579     Mn1587   2.240       .  S
N1580      C1588   1.359       .  A
N1581      N1583   1.308       .  A
N1581      N1582   1.320       .  A
N1581     Mn1599   2.201       .  S
N1582      C1589   1.359       .  A
N1583      N1584   1.317       .  A
N1583     Mn1959   2.169       .  S
N1584      C1589   1.351       .  A
N1585      N1586   1.354       .  A
N1585     Mn1971   2.344   1_554  S
N1586      C1588   1.384       .  A
Mn1587     N1930   2.181       .  S
Mn1587     N1955   2.169       .  S
Mn1587    Cl1600   2.529   1_554  S
C1589      C1736   1.481       .  S
N1590      N1591   1.320       .  A
N1590      N1596   1.325       .  A
N1590     Mn1598   2.181       .  S
N1591      C1601   1.349       .  A
N1592      N1593   1.325   1_556  A
N1592      N1594   1.327       .  A
N1592     Mn1971   2.223       .  S
N1593      C1602   1.354   1_554  A
N1594      N1595   1.310       .  A
N1594     Mn1970   2.203       .  S
N1595      C1602   1.338       .  A
N1596      N1597   1.315       .  A
N1596     Mn1599   2.242       .  S
N1597      C1601   1.353       .  A
Mn1598     N1940   2.197       .  S
Mn1598     N1966   2.203       .  S
Mn1598    Cl1972   2.549       .  S
Mn1599     N1957   2.344       .  S
Mn1599     N1964   2.223       .  S
Mn1599    Cl1972   2.591       .  S
Cl1600    Mn1970   2.549       .  S
Cl1600    Mn1971   2.591       .  S
C1601      C1753   1.472       .  S
C1602      C1792   1.450   1_556  S
N1603      N1604   1.316       .  A
N1603      N1609   1.319       .  A
N1603     Mn1632   2.240       .  S
N1604      C1611   1.355       .  A
N1605      N1607   1.320       .  A
N1605     Mn1621   2.270   1_455  S
N1606      C1612   1.363       .  A
N1607     Mn1632   2.150   1_455  S
N1608      C1612   1.341       .  A
N1609      N1610   1.315       .  A
N1609     Mn1621   2.134       .  S
N1610      C1611   1.342       .  A
C1611      C1767   1.463       .  S
C1612      C1834   1.459       .  S
N1613      N1619   1.312       .  A
N1613      N1614   1.306       .  A
N1613     Mn1643   2.139       .  S
N1614      C1622   1.339       .  A
N1615      N1616   1.346       .  A
N1615      N1617   1.315       .  A
N1615     Mn1621   2.337       .  S
N1616      C1623   1.378       .  A
N1617      N1618   1.339       .  A
N1618      C1623   1.370       .  A
N1619      N1620   1.323       .  A
N1620      C1622   1.354       .  A
Mn1621    Cl1645   2.556   1_655  S
C1622      C1708   1.464       .  S
N1624      N1625   1.345       .  A
N1624      N1630   1.315       .  A
N1625      C1633   1.373       .  A
N1626      N1628   1.312       .  A
N1626      N1627   1.319       .  A
N1627      C1634   1.347       .  A
N1628      N1629   1.320       .  A
N1628     Mn1632   2.195       .  S
N1629      C1634   1.350       .  A
N1630      N1631   1.340       .  A
N1630     Mn1644   2.319       .  S
N1631      C1633   1.375       .  A
Mn1632    Cl1645   2.534   1_655  S
C1634      C1697   1.473       .  S
N1635      N1641   1.315       .  A
N1635     Mn1643   2.115       .  S
N1636      C1646   1.336       .  A
N1637      N1638   1.309       .  A
N1637      N1639   1.320       .  A
N1637     Mn1644   2.124       .  S
N1638      C1647   1.335       .  A
N1639      N1640   1.331       .  A
N1639     Mn1643   2.298       .  S
N1640      C1647   1.367       .  A
N1641     Mn1644   2.263       .  S
N1642      C1646   1.364       .  A
C1646      C1848   1.450       .  S
C1647      C1750   1.474       .  S
N1648      N1649   1.340       .  A
N1648      N1654   1.315       .  A
N1648     Mn1677   2.298       .  S
N1649      C1656   1.371       .  A
N1650      N1652   1.308   1_545  A
N1650      N1651   1.313       .  A
N1650     Mn1666   2.155       .  S
N1651      C1657   1.345       .  A
N1652      N1653   1.324       .  A
N1652     Mn2421   2.198       .  S
N1653      C1657   1.356   1_565  A
N1654      N1655   1.337       .  A
N1654     Mn2410   2.271       .  S
N1655      C1656   1.366       .  A
C1657      C1739   1.461       .  S
N1658      N1664   1.325       .  A
N1658      N1659   1.324       .  A
N1658     Mn1688   2.218       .  S
N1659      C1667   1.358       .  A
N1660      N1661   1.320       .  A
N1660      N1662   1.320       .  A
N1660     Mn2410   2.171       .  S
N1661      C1668   1.348       .  A
N1662      N1663   1.311       .  A
N1662     Mn2432   2.205       .  S
N1663      C1668   1.348       .  A
N1664      N1665   1.311       .  A
N1664     Mn1666   2.222       .  S
N1665      C1667   1.344       .  A
Mn1666     N2398   2.271   1_545  S
Mn1666     N2404   2.170       .  S
Mn1666    Cl1690   2.541       .  S
C1667      C1694   1.487       .  S
C1668      C1820   1.457       .  S
N1669      N1670   1.315       .  A
N1669      N1675   1.320       .  A
N1669     Mn2421   2.217       .  S
N1670      C1678   1.347       .  A
N1671      N1673   1.324       .  A
N1671      N1672   1.316       .  A
N1671     Mn1689   2.226       .  S
N1672      C1679   1.349       .  A
N1673      N1674   1.317       .  A
N1673     Mn1677   2.193       .  S
N1674      C1679   1.348       .  A
N1675      N1676   1.318       .  A
N1675     Mn2433   2.178       .  S
N1676      C1678   1.351       .  A
Mn1677     N2396   2.199       .  S
Mn1677     N2413   2.217       .  S
Mn1677    Cl2434   2.558       .  S
C1678      C1806   1.464       .  S
C1679      C1711   1.474       .  S
N1680      N1681   1.325       .  A
N1680      N1686   1.313       .  A
N1680     Mn2432   2.212       .  S
N1681      C1691   1.355       .  A
N1682      N1683   1.341       .  A
N1682      N1684   1.319       .  A
N1682     Mn2433   2.293   1_545  S
N1683      C1692   1.369       .  A
N1684      N1685   1.343       .  A
N1684     Mn1688   2.323       .  S
N1685      C1692   1.376       .  A
N1686      N1687   1.315       .  A
N1686     Mn1689   2.174       .  S
N1687      C1691   1.348       .  A
Mn1688     N2406   2.207       .  S
Mn1688     N2424   2.212       .  S
Mn1688    Cl1690   2.567       .  S
Mn1689     N2419   2.178       .  S
Mn1689     N2426   2.292       .  S
Mn1689    Cl2434   2.550       .  S
Cl1690    Mn2421   2.558   1_545  S
Cl1690    Mn2433   2.550   1_545  S
C1691      C1722   1.466       .  S
C1693      C1694   1.415       .  A
C1693      C1698   1.393       .  A
C1693      H1700   1.078       .  S
C1694      C1695   1.406       .  A
C1695      C1696   1.403       .  A
C1695      N1702   1.428       .  S
C1696      C1697   1.408       .  A
C1696      H1701   1.071       .  S
C1697      C1698   1.404       .  A
C1698      N1699   1.431       .  S
N1699      O1703   1.261       .  A
N1699      O1704   1.262       .  A
N1702      O1706   1.261       .  A
N1702      O1705   1.262       .  A
C1707      C1708   1.395       .  A
C1707      C1712   1.382       .  A
C1707      H1714   1.082       .  S
C1708      C1709   1.406       .  A
C1709      C1710   1.402       .  A
C1709      N1716   1.426       .  S
C1710      C1711   1.410       .  A
C1710      H1715   1.086       .  S
C1711      C1712   1.423       .  A
C1712      N1713   1.435       .  S
N1713      O1717   1.259       .  A
N1713      O1718   1.260       .  A
N1716      O1720   1.262       .  A
N1716      O1719   1.261       .  A
C1721      C1722   1.400       .  A
C1721      C1726   1.401       .  A
C1721      H1728   1.080       .  S
C1722      C1723   1.406       .  A
C1723      C1724   1.397       .  A
C1723      N1730   1.429       .  S
C1724      C1725   1.407       .  A
C1724      H1729   1.080       .  S
C1725      C1726   1.414       .  A
C1726      N1727   1.428       .  S
N1727      O1731   1.261       .  A
N1727      O1732   1.261   1_554  A
N1730      O1734   1.262       .  A
N1730      O1733   1.262       .  A
C1735      C1736   1.405       .  A
C1735      C1740   1.398       .  A
C1735      H1742   1.079       .  S
C1736      C1737   1.417       .  A
C1737      C1738   1.397       .  A
C1737      N1744   1.430       .  S
C1738      C1739   1.397       .  A
C1738      H1743   1.080       .  S
C1739      C1740   1.407       .  A
C1740      N1741   1.429       .  S
N1741      O1745   1.262       .  A
N1741      O1746   1.262       .  A
N1744      O1748   1.262       .  A
N1744      O1747   1.262       .  A
C1749      C1750   1.401       .  A
C1749      C1754   1.409       .  A
C1749      H1756   1.088       .  S
C1750      C1751   1.420       .  A
C1751      C1752   1.392       .  A
C1751      N1758   1.428       .  S
C1752      C1753   1.394       .  A
C1752      H1757   1.086       .  S
C1753      C1754   1.408       .  A
C1754      N1755   1.440       .  S
N1755      O1759   1.263       .  A
N1755      O1760   1.263       .  A
N1758      O1762   1.262       .  A
N1758      O1761   1.262       .  A
C1763      C1764   1.393       .  A
C1763      C1768   1.393       .  A
C1763      H1770   1.079       .  S
C1764      C1765   1.414       .  A
C1765      C1766   1.383       .  A
C1765      N1772   1.432       .  S
C1766      C1767   1.396       .  A
C1766      H1771   1.078       .  S
C1767      C1768   1.415       .  A
C1768      N1769   1.428       .  S
N1769      O1773   1.262       .  A
N1769      O1774   1.262       .  A
N1772      O1776   1.262       .  A
N1772      O1775   1.262       .  A
C1777      C1778   1.397       .  A
C1777      C1782   1.390       .  A
C1777      H1784   1.079       .  S
C1778      C1779   1.406       .  A
C1779      C1780   1.393       .  A
C1779      N1786   1.429       .  S
C1780      C1781   1.399       .  A
C1780      H1785   1.082       .  S
C1781      C1782   1.403       .  A
C1782      N1783   1.428       .  S
N1783      O1787   1.262       .  A
N1783      O1788   1.262       .  A
N1786      O1790   1.261       .  A
N1786      O2161   1.261       .  A
O1789      N2158   1.261       .  A
C1791      C1792   1.400       .  A
C1791      C1796   1.396       .  A
C1791      H1798   1.081       .  S
C1792      C1793   1.403   1_554  A
C1793      C1794   1.394       .  A
C1793      N1800   1.427       .  S
C1794      C1795   1.399   1_556  A
C1794      H1799   1.080       .  S
C1795      C1796   1.409       .  A
C1796      N1797   1.430       .  S
N1797      O1801   1.262       .  A
N1797      O1802   1.262       .  A
N1800      O1804   1.261       .  A
N1800      O1803   1.262       .  A
C1805      C1806   1.403       .  A
C1805      C1810   1.395       .  A
C1805      H1812   1.080   1_565  S
C1806      C2551   1.411       .  A
C1807      C2550   1.411       .  A
C1807      C1808   1.387       .  A
C1807      N1814   1.429       .  S
C1808      C1809   1.394       .  A
C1808      H1813   1.081       .  S
C1809      C2554   1.406       .  A
C1810      C2553   1.406       .  A
C1810      N1811   1.429   1_565  S
N1811      O1815   1.262       .  A
N1811      O2560   1.262       .  A
N1814      O1818   1.261       .  A
N1814      O2561   1.262       .  A
O1816      N2555   1.262       .  A
O1817      N2558   1.262       .  A
C1819      C1820   1.400       .  A
C1819      C2568   1.385       .  A
C1819      H1826   1.080       .  S
C1820      C1821   1.410       .  A
C1821      C2566   1.397       .  A
C1821      N1828   1.429       .  S
C1822      C2565   1.396       .  A
C1822      C1823   1.400       .  A
C1822      H1827   1.080   1_545  S
C1823      C1824   1.399       .  A
C1824      C2563   1.385       .  A
C1824      N1825   1.425       .  S
N1825      O2573   1.260       .  A
N1825      O1830   1.262       .  A
N1828      O2576   1.262       .  A
N1828      O1831   1.262       .  A
O1829      N2569   1.261       .  A
O1832      N2572   1.262       .  A
C1833      C1838   1.392       .  A
C1833      H1840   1.082       .  S
C1834      C1835   1.405       .  A
C1835      C1836   1.395       .  A
C1835      N1842   1.428       .  S
C1836      H1841   1.082       .  S
C1837      C1838   1.405   1_455  A
C1838      N1839   1.429       .  S
N1839      O1843   1.262       .  A
N1839      O1844   1.262       .  A
N1842      O1846   1.261       .  A
N1842      O1845   1.262       .  A
C1847      C1852   1.390       .  A
C1847      H1854   1.074       .  S
C1848      C1849   1.402       .  A
C1849      C1850   1.398       .  A
C1849      N1856   1.428       .  S
C1850      H1855   1.071       .  S
C1851      C1852   1.404       .  A
C1852      N1853   1.429       .  S
N1853      O1857   1.262       .  A
N1853      O1858   1.262       .  A
N1856      O1860   1.262       .  A
N1856      O1859   1.261       .  A
C1861      C1862   1.538       .  S
C1861      C1867   1.568       .  S
C1861      C1865   1.580       .  S
C1861      C1995   1.614       .  S
C1862      H1869   1.087       .  S
C1862      C1863   1.367       .  D
C1863      C1864   1.584       .  S
C1863      C1905   1.531       .  S
C1864      C1868   1.579       .  S
C1864      C1866   1.575       .  S
C1864      H1870   1.110       .  S
C1865      H1871   1.085       .  S
C1865      C1866   1.396       .  D
C1866      C1950   1.568       .  S
C1867      H1872   1.085       .  S
C1867      C1868   1.390       .  D
C1868      C2028   1.556       .  S
C1873      C1874   1.559       .  S
C1873      C1879   1.544       .  S
C1873      C1877   1.554       .  S
C1873      C2064   1.612       .  S
C1874      H1881   1.085       .  S
C1874      C1875   1.390       .  D
C1875      C1876   1.607       .  S
C1875      C2005   1.581       .  S
C1876      C1880   1.606       .  S
C1876      C1878   1.576       .  S
C1876      H1882   1.110       .  S
C1877      H1883   1.086       .  S
C1877      C1878   1.382       .  D
C1878      C1915   1.538       .  S
C1879      H1884   1.085       .  S
C1879      C1880   1.383       .  D
C1880      C1960   1.580       .  S
N1885      N1886   1.315       .  A
N1885      N1891   1.320       .  A
N1885     Mn2658   2.223       .  S
N1886      C1893   1.350       .  A
N1887      N1888   1.310       .  A
N1887     Mn1903   2.200       .  S
N1889      N1890   1.323       .  A
N1889     Mn1914   2.187       .  S
N1890      C1894   1.353       .  A
N1891      N1892   1.319       .  A
N1892      C1893   1.345       .  A
C1893      C2181   1.449       .  S
C1894      C2223   1.466       .  S
N1895      N1901   1.309       .  A
N1895     Mn2297   2.190   1_546  S
N1897      N1898   1.331       .  A
N1897      N1899   1.318       .  A
N1897     Mn2647   2.250       .  S
N1898      C1905   1.363       .  A
N1899      N1900   1.337       .  A
N1900      C1905   1.365       .  A
N1901      N1902   1.310       .  A
N1901     Mn1903   2.148       .  S
N1902      C1904   1.340       .  A
Mn1903     N2641   2.250   1_545  S
Mn1903    Cl1927   2.545   1_556  S
C1904      C2150   1.448       .  S
N1906      N1907   1.338       .  A
N1906      N1912   1.316       .  A
N1907      C1915   1.366       .  A
N1908      N1909   1.310       .  A
N1908     Mn1926   2.144       .  S
N1909      C1916   1.340       .  A
N1910      N1911   1.323   1_554  A
N1910     Mn2658   2.211   1_554  S
N1912      N1913   1.332       .  A
N1912     Mn2670   2.249   1_545  S
N1913      C1915   1.363       .  A
Mn1914     N2629   2.223       .  S
Mn1914     N2654   2.212   1_556  S
C1916      C2167   1.452       .  S
N1917      N1918   1.323       .  A
N1917      N1923   1.321   1_655  A
N1917     Mn1925   2.184       .  S
N1918      C1928   1.351   1_655  A
N1919      N1920   1.315       .  A
N1919      N1921   1.320       .  A
N1920      C1929   1.341       .  A
N1921      N1922   1.319       .  A
N1921     Mn2669   2.234   1_545  S
N1922      C1929   1.353       .  A
Mn1925     N2267   2.191       .  S
Mn1925     N2665   2.233       .  S
Mn1925    Cl2299   2.567       .  S
Mn1926     N2656   2.249       .  S
Cl1927    Mn2297   2.567   1_545  S
C1928      C2209   1.464       .  S
C1929      C2195   1.448       .  S
N1930      N1931   1.309       .  A
N1930      N1936   1.321       .  A
N1931      C1938   1.338       .  A
N1932      N1934   1.319       .  A
N1932      N1933   1.318       .  A
N1932     Mn1948   2.242       .  S
N1933      C1939   1.356       .  A
N1934      N1935   1.310       .  A
N1934     Mn1959   2.128       .  S
N1935      C1939   1.339       .  A
N1936      N1937   1.323   1_554  A
N1937      C1938   1.353   1_556  A
C1938      C2153   1.442   1_554  S
C1939      C2136   1.448       .  S
N1940      N1946   1.310       .  A
N1940      N1941   1.323       .  A
N1941      C1949   1.357       .  A
N1942      N1943   1.343       .  A
N1942      N1944   1.319       .  A
N1943      C1950   1.372       .  A
N1944      N1945   1.340       .  A
N1944     Mn1970   2.292       .  S
N1945      C1950   1.368       .  A
N1946      N1947   1.316       .  A
N1946     Mn1948   2.189       .  S
N1947      C1949   1.354       .  A
Mn1948    Cl1972   2.584       .  S
C1949      C2097   1.484       .  S
N1951      N1952   1.328       .  A
N1951      N1957   1.315       .  A
N1951     Mn1959   2.240       .  S
N1952      C1960   1.359       .  A
N1953      N1955   1.308   1_556  A
N1953      N1954   1.320       .  A
N1953     Mn1971   2.201       .  S
N1954      C1961   1.359       .  A
N1955      N1956   1.317       .  A
N1956      C1961   1.351   1_554  A
N1957      N1958   1.354       .  A
N1958      C1960   1.384       .  A
Mn1959    Cl1972   2.529       .  S
C1961      C2108   1.481       .  S
N1962      N1963   1.320       .  A
N1962      N1968   1.325       .  A
N1962     Mn1970   2.181       .  S
N1963      C1973   1.349       .  A
N1964      N1965   1.325       .  A
N1964      N1966   1.327       .  A
N1965      C1974   1.354       .  A
N1966      N1967   1.310       .  A
N1967      C1974   1.338       .  A
N1968      N1969   1.315       .  A
N1968     Mn1971   2.242       .  S
N1969      C1973   1.353       .  A
C1973      C2125   1.472       .  S
C1974      C2164   1.450       .  S
N1975      N1976   1.316       .  A
N1975      N1981   1.319       .  A
N1975     Mn2004   2.240       .  S
N1976      C1983   1.355       .  A
N1977      N1979   1.320       .  A
N1977     Mn1993   2.270   1_455  S
N1978      C1984   1.363       .  A
N1979     Mn2004   2.150   1_455  S
N1980      C1984   1.341       .  A
N1981      N1982   1.315       .  A
N1981     Mn1993   2.134       .  S
N1982      C1983   1.342       .  A
C1983      C2139   1.463       .  S
C1984      C2206   1.459       .  S
N1985      N1991   1.312       .  A
N1985      N1986   1.306       .  A
N1985     Mn2015   2.139       .  S
N1986      C1994   1.339       .  A
N1987      N1988   1.346       .  A
N1987      N1989   1.315       .  A
N1987     Mn1993   2.337       .  S
N1988      C1995   1.378       .  A
N1989      N1990   1.339       .  A
N1990      C1995   1.370       .  A
N1991      N1992   1.323       .  A
N1992      C1994   1.354       .  A
Mn1993    Cl2017   2.556   1_655  S
C1994      C2080   1.464       .  S
N1996      N1997   1.345       .  A
N1996      N2002   1.315       .  A
N1997      C2005   1.373       .  A
N1998      N2000   1.312       .  A
N1998      N1999   1.319       .  A
N1999      C2006   1.347       .  A
N2000      N2001   1.320       .  A
N2000     Mn2004   2.195       .  S
N2001      C2006   1.350       .  A
N2002      N2003   1.340       .  A
N2002     Mn2016   2.320       .  S
N2003      C2005   1.375       .  A
Mn2004    Cl2017   2.534   1_655  S
C2006      C2069   1.473       .  S
N2007      N2013   1.315       .  A
N2007     Mn2015   2.115       .  S
N2008      C2018   1.336       .  A
N2009      N2010   1.309       .  A
N2009      N2011   1.320       .  A
N2009     Mn2016   2.124       .  S
N2010      C2019   1.335       .  A
N2011      N2012   1.331       .  A
N2011     Mn2015   2.298       .  S
N2012      C2019   1.367       .  A
N2013     Mn2016   2.263       .  S
N2014      C2018   1.364       .  A
C2018      C2220   1.450       .  S
C2019      C2122   1.474       .  S
N2020      N2021   1.340       .  A
N2020      N2026   1.315       .  A
N2020     Mn2049   2.298       .  S
N2021      C2028   1.371       .  A
N2022      N2024   1.308   1_545  A
N2022      N2023   1.313       .  A
N2022     Mn2038   2.155       .  S
N2023      C2029   1.345       .  A
N2024      N2025   1.324       .  A
N2024     Mn2793   2.198       .  S
N2025      C2029   1.356   1_565  A
N2026      N2027   1.337       .  A
N2026     Mn2782   2.271       .  S
N2027      C2028   1.366       .  A
C2029      C2111   1.461       .  S
N2030      N2036   1.325       .  A
N2030      N2031   1.324       .  A
N2030     Mn2060   2.218       .  S
N2031      C2039   1.358       .  A
N2032      N2033   1.320       .  A
N2032      N2034   1.320       .  A
N2032     Mn2782   2.171       .  S
N2033      C2040   1.348       .  A
N2034      N2035   1.311       .  A
N2034     Mn2804   2.205       .  S
N2035      C2040   1.348       .  A
N2036      N2037   1.311       .  A
N2036     Mn2038   2.222       .  S
N2037      C2039   1.344       .  A
Mn2038     N2770   2.271   1_545  S
Mn2038     N2776   2.170       .  S
Mn2038    Cl2062   2.541       .  S
C2039      C2066   1.487       .  S
C2040      C2192   1.457       .  S
N2041      N2042   1.315       .  A
N2041      N2047   1.320       .  A
N2041     Mn2793   2.217       .  S
N2042      C2050   1.347       .  A
N2043      N2045   1.324       .  A
N2043      N2044   1.316       .  A
N2043     Mn2061   2.226       .  S
N2044      C2051   1.349       .  A
N2045      N2046   1.317       .  A
N2045     Mn2049   2.193       .  S
N2046      C2051   1.348       .  A
N2047      N2048   1.318       .  A
N2047     Mn2805   2.178       .  S
N2048      C2050   1.351       .  A
Mn2049     N2768   2.199       .  S
Mn2049     N2785   2.217       .  S
Mn2049    Cl2806   2.558       .  S
C2050      C2178   1.464       .  S
C2051      C2083   1.474       .  S
N2052      N2053   1.325       .  A
N2052      N2058   1.313       .  A
N2052     Mn2804   2.212       .  S
N2053      C2063   1.355       .  A
N2054      N2055   1.341       .  A
N2054      N2056   1.319       .  A
N2054     Mn2805   2.293   1_545  S
N2055      C2064   1.369       .  A
N2056      N2057   1.343       .  A
N2056     Mn2060   2.323       .  S
N2057      C2064   1.376       .  A
N2058      N2059   1.315       .  A
N2058     Mn2061   2.174       .  S
N2059      C2063   1.348       .  A
Mn2060     N2778   2.207       .  S
Mn2060     N2796   2.212       .  S
Mn2060    Cl2062   2.567       .  S
Mn2061     N2791   2.178       .  S
Mn2061     N2798   2.293       .  S
Mn2061    Cl2806   2.550       .  S
Cl2062    Mn2793   2.558   1_545  S
Cl2062    Mn2805   2.550   1_545  S
C2063      C2094   1.466       .  S
C2065      C2066   1.415       .  A
C2065      C2070   1.393       .  A
C2065      H2072   1.077       .  S
C2066      C2067   1.406       .  A
C2067      C2068   1.403       .  A
C2067      N2074   1.428       .  S
C2068      C2069   1.408       .  A
C2068      H2073   1.071       .  S
C2069      C2070   1.404       .  A
C2070      N2071   1.431       .  S
N2071      O2075   1.261       .  A
N2071      O2076   1.262       .  A
N2074      O2078   1.261       .  A
N2074      O2077   1.262       .  A
C2079      C2080   1.395       .  A
C2079      C2084   1.382       .  A
C2079      H2086   1.081       .  S
C2080      C2081   1.406       .  A
C2081      C2082   1.402       .  A
C2081      N2088   1.426       .  S
C2082      C2083   1.410       .  A
C2082      H2087   1.086       .  S
C2083      C2084   1.423       .  A
C2084      N2085   1.435       .  S
N2085      O2089   1.259       .  A
N2085      O2090   1.260       .  A
N2088      O2092   1.262       .  A
N2088      O2091   1.261       .  A
C2093      C2094   1.400       .  A
C2093      C2098   1.401       .  A
C2093      H2100   1.080       .  S
C2094      C2095   1.406       .  A
C2095      C2096   1.397       .  A
C2095      N2102   1.429       .  S
C2096      C2097   1.406       .  A
C2096      H2101   1.080       .  S
C2097      C2098   1.415       .  A
C2098      N2099   1.428       .  S
N2099      O2103   1.261       .  A
N2099      O2104   1.261       .  A
N2102      O2106   1.262       .  A
N2102      O2105   1.262       .  A
C2107      C2108   1.405       .  A
C2107      C2112   1.398       .  A
C2107      H2114   1.079       .  S
C2108      C2109   1.417       .  A
C2109      C2110   1.397       .  A
C2109      N2116   1.430       .  S
C2110      C2111   1.397       .  A
C2110      H2115   1.080       .  S
C2111      C2112   1.407       .  A
C2112      N2113   1.429       .  S
N2113      O2117   1.262       .  A
N2113      O2118   1.262       .  A
N2116      O2120   1.262       .  A
N2116      O2119   1.262   1_556  A
C2121      C2122   1.401       .  A
C2121      C2126   1.409       .  A
C2121      H2128   1.088       .  S
C2122      C2123   1.420       .  A
C2123      C2124   1.392       .  A
C2123      N2130   1.428       .  S
C2124      C2125   1.394       .  A
C2124      H2129   1.086       .  S
C2125      C2126   1.408       .  A
C2126      N2127   1.440       .  S
N2127      O2131   1.263       .  A
N2127      O2132   1.263       .  A
N2130      O2134   1.262       .  A
N2130      O2133   1.262       .  A
C2135      C2136   1.393       .  A
C2135      C2140   1.393       .  A
C2135      H2142   1.079       .  S
C2136      C2137   1.414       .  A
C2137      C2138   1.383       .  A
C2137      N2144   1.432       .  S
C2138      C2139   1.396       .  A
C2138      H2143   1.078       .  S
C2139      C2140   1.415       .  A
C2140      N2141   1.428       .  S
N2141      O2145   1.262       .  A
N2141      O2146   1.262       .  A
N2144      O2148   1.262       .  A
N2144      O2147   1.262       .  A
C2149      C2150   1.397   1_554  A
C2149      C2154   1.390       .  A
C2149      H2156   1.079       .  S
C2150      C2151   1.406       .  A
C2151      C2152   1.393       .  A
C2151      N2158   1.429       .  S
C2152      C2153   1.399       .  A
C2152      H2157   1.082       .  S
C2153      C2154   1.403   1_556  A
C2154      N2155   1.428       .  S
N2155      O2159   1.262       .  A
N2155      O2160   1.262       .  A
N2158      O2162   1.261       .  A
C2163      C2164   1.400       .  A
C2163      C2168   1.396       .  A
C2163      H2170   1.081       .  S
C2164      C2165   1.403       .  A
C2165      C2166   1.394       .  A
C2165      N2172   1.427       .  S
C2166      C2167   1.399       .  A
C2166      H2171   1.080       .  S
C2167      C2168   1.409       .  A
C2168      N2169   1.430       .  S
N2169      O2173   1.262       .  A
N2169      O2174   1.262       .  A
N2172      O2176   1.261       .  A
N2172      O2175   1.262       .  A
C2177      C2178   1.403       .  A
C2177      C2182   1.395       .  A
C2177      H2184   1.080   1_565  S
C2178      C2923   1.411       .  A
C2179      C2922   1.411       .  A
C2179      C2180   1.387       .  A
C2179      N2186   1.429       .  S
C2180      C2181   1.394       .  A
C2180      H2185   1.081       .  S
C2181      C2926   1.406       .  A
C2182      C2925   1.406       .  A
C2182      N2183   1.429   1_565  S
N2183      O2187   1.262       .  A
N2183      O2932   1.262       .  A
N2186      O2190   1.261       .  A
N2186      O2933   1.262       .  A
O2188      N2927   1.262       .  A
O2189      N2930   1.262       .  A
C2191      C2192   1.400       .  A
C2191      C2940   1.385       .  A
C2191      H2198   1.080       .  S
C2192      C2193   1.410       .  A
C2193      C2938   1.397       .  A
C2193      N2200   1.429       .  S
C2194      C2937   1.396       .  A
C2194      C2195   1.400       .  A
C2194      H2199   1.080   1_545  S
C2195      C2196   1.399       .  A
C2196      C2935   1.385       .  A
C2196      N2197   1.425       .  S
N2197      O2945   1.260       .  A
N2197      O2202   1.262       .  A
N2200      O2948   1.262       .  A
N2200      O2203   1.262       .  A
O2201      N2941   1.261       .  A
O2204      N2944   1.262       .  A
C2205      C2210   1.392       .  A
C2205      H2212   1.082       .  S
C2206      C2207   1.405       .  A
C2207      C2208   1.395       .  A
C2207      N2214   1.428       .  S
C2208      H2213   1.082       .  S
C2209      C2210   1.405   1_455  A
C2210      N2211   1.429       .  S
N2211      O2215   1.262       .  A
N2211      O2216   1.262       .  A
N2214      O2218   1.261       .  A
N2214      O2217   1.262       .  A
C2219      C2224   1.390       .  A
C2219      H2226   1.074       .  S
C2220      C2221   1.401       .  A
C2221      C2222   1.398       .  A
C2221      N2228   1.428       .  S
C2222      H2227   1.071       .  S
C2223      C2224   1.404       .  A
C2224      N2225   1.429       .  S
N2225      O2229   1.262       .  A
N2225      O2230   1.262       .  A
N2228      O2232   1.262       .  A
N2228      O2231   1.261       .  A
C2233      C2234   1.538       .  S
C2233      C2239   1.568       .  S
C2233      C2237   1.580       .  S
C2233      C2367   1.615       .  S
C2234      H2241   1.087       .  S
C2234      C2235   1.367       .  D
C2235      C2236   1.584       .  S
C2235      C2277   1.531       .  S
C2236      C2240   1.579       .  S
C2236      C2238   1.575       .  S
C2236      H2242   1.110       .  S
C2237      H2243   1.085       .  S
C2237      C2238   1.396       .  D
C2238      C2322   1.568       .  S
C2239      H2244   1.085       .  S
C2239      C2240   1.390       .  D
C2240      C2400   1.557       .  S
C2245      C2246   1.559       .  S
C2245      C2251   1.544       .  S
C2245      C2249   1.554       .  S
C2245      C2436   1.612       .  S
C2246      H2253   1.085       .  S
C2246      C2247   1.390       .  D
C2247      C2248   1.608       .  S
C2247      C2377   1.581       .  S
C2248      C2252   1.606       .  S
C2248      C2250   1.577       .  S
C2248      H2254   1.110       .  S
C2249      H2255   1.086       .  S
C2249      C2250   1.382       .  D
C2250      C2287   1.539       .  S
C2251      H2256   1.085       .  S
C2251      C2252   1.383       .  D
C2252      C2332   1.580       .  S
N2257      N2258   1.314       .  A
N2257      N2263   1.320       .  A
N2258      C2265   1.350       .  A
N2259      N2260   1.310       .  A
N2259     Mn2275   2.200       .  S
N2261      N2262   1.323       .  A
N2261     Mn2286   2.187       .  S
N2262      C2266   1.353       .  A
N2263      N2264   1.319       .  A
N2264      C2265   1.345       .  A
C2265      C2553   1.449   1_545  S
C2266      C2595   1.466       .  S
N2267      N2273   1.309       .  A
N2267      N2640   1.321       .  A
N2268      N2639   1.321   1_554  A
N2268      C2648   1.359   1_554  A
N2269      N2270   1.331       .  A
N2269      N2271   1.318       .  A
N2270      C2277   1.363       .  A
N2271      N2272   1.337       .  A
N2271     Mn2669   2.279       .  S
N2272      C2277   1.365       .  A
N2273      N2274   1.310       .  A
N2273     Mn2275   2.148       .  S
N2274      C2276   1.340       .  A
Mn2275    Cl2299   2.545       .  S
C2276      N2640   1.359       .  A
C2276      C2522   1.448       .  S
N2278      N2279   1.338       .  A
N2278      N2284   1.316       .  A
N2278     Mn2658   2.283   1_554  S
N2279      C2287   1.366       .  A
N2280      N2654   1.310   1_565  A
N2280      N2281   1.310       .  A
N2280     Mn2298   2.144       .  S
N2281      C2288   1.340       .  A
N2282      N2652   1.310   1_545  A
N2282      N2283   1.323   1_545  A
N2283      C2660   1.360       .  A
N2284      N2285   1.332       .  A
N2285      C2287   1.363       .  A
Mn2286     N2650   2.283       .  S
C2288      N2655   1.360   1_554  A
C2288      C2539   1.453       .  S
N2289      N2290   1.323       .  A
N2289      N2295   1.321   1_655  A
N2289     Mn2297   2.184       .  S
N2290      C2300   1.351   1_655  A
N2291      N2292   1.315       .  A
N2291      N2293   1.320       .  A
N2292      C2301   1.341       .  A
N2293      N2294   1.319       .  A
N2294      C2301   1.353       .  A
Mn2297     N2643   2.279   1_554  S
C2300      C2581   1.464       .  S
C2301      C2567   1.448       .  S
N2302      N2303   1.309       .  A
N2302      N2308   1.321       .  A
N2302     Mn2703   2.181       .  S
N2303      C2310   1.338       .  A
N2304      N2306   1.319       .  A
N2304      N2305   1.318       .  A
N2304     Mn2320   2.241       .  S
N2305      C2311   1.356       .  A
N2306      N2307   1.310       .  A
N2306     Mn2331   2.129       .  S
N2307      C2311   1.339       .  A
N2308      N2309   1.323       .  A
N2308     Mn2692   2.195       .  S
N2309      C2310   1.353       .  A
C2310      C2525   1.443       .  S
C2311      C2508   1.448       .  S
N2312      N2318   1.310   1_556  A
N2312      N2313   1.323       .  A
N2312     Mn2714   2.197       .  S
N2313      C2321   1.357   1_556  A
N2314      N2315   1.342       .  A
N2314      N2316   1.319       .  A
N2314     Mn2692   2.307       .  S
N2315      C2322   1.372       .  A
N2316      N2317   1.340       .  A
N2316     Mn2342   2.292       .  S
N2317      C2322   1.368       .  A
N2318      N2319   1.316       .  A
N2318     Mn2320   2.190       .  S
N2319      C2321   1.354       .  A
Mn2320     N2680   2.195       .  S
Mn2320     N2686   2.307   1_554  S
Mn2320    Cl2344   2.583   1_554  S
C2321      C2469   1.484       .  S
N2323      N2324   1.328       .  A
N2323      N2329   1.315       .  A
N2323     Mn2331   2.240       .  S
N2324      C2332   1.359       .  A
N2325      N2327   1.308       .  A
N2325      N2326   1.321       .  A
N2325     Mn2343   2.202       .  S
N2326      C2333   1.359       .  A
N2327      N2328   1.317       .  A
N2327     Mn2703   2.170       .  S
N2328      C2333   1.351       .  A
N2329      N2330   1.354       .  A
N2329     Mn2715   2.343   1_554  S
N2330      C2332   1.383       .  A
Mn2331     N2674   2.181       .  S
Mn2331     N2699   2.170       .  S
Mn2331    Cl2344   2.530   1_554  S
C2333      C2480   1.482       .  S
N2334      N2335   1.320       .  A
N2334      N2340   1.325       .  A
N2334     Mn2342   2.182       .  S
N2335      C2345   1.349       .  A
N2336      N2337   1.325   1_556  A
N2336      N2338   1.327       .  A
N2336     Mn2715   2.223       .  S
N2337      C2346   1.354   1_554  A
N2338      N2339   1.311       .  A
N2338     Mn2714   2.203       .  S
N2339      C2346   1.339       .  A
N2340      N2341   1.315       .  A
N2340     Mn2343   2.241       .  S
N2341      C2345   1.353       .  A
Mn2342     N2684   2.197       .  S
Mn2342     N2710   2.203       .  S
Mn2342    Cl2716   2.549       .  S
Mn2343     N2701   2.343       .  S
Mn2343     N2708   2.223       .  S
Mn2343    Cl2716   2.591       .  S
Cl2344    Mn2714   2.549       .  S
Cl2344    Mn2715   2.591       .  S
C2345      C2497   1.472       .  S
C2346      C2536   1.451   1_556  S
N2347      N2348   1.316       .  A
N2347      N2353   1.319       .  A
N2347     Mn2376   2.240       .  S
N2348      C2355   1.355       .  A
N2349      N2351   1.320       .  A
N2349     Mn2365   2.270   1_455  S
N2350      C2356   1.363       .  A
N2351     Mn2376   2.150   1_455  S
N2352      C2356   1.341       .  A
N2353      N2354   1.315       .  A
N2353     Mn2365   2.134       .  S
N2354      C2355   1.342       .  A
C2355      C2511   1.462       .  S
C2356      C2578   1.459       .  S
N2357      N2363   1.312       .  A
N2357      N2358   1.306       .  A
N2357     Mn2387   2.139       .  S
N2358      C2366   1.339       .  A
N2359      N2360   1.346       .  A
N2359      N2361   1.315       .  A
N2359     Mn2365   2.337       .  S
N2360      C2367   1.378       .  A
N2361      N2362   1.339       .  A
N2362      C2367   1.370       .  A
N2363      N2364   1.323       .  A
N2364      C2366   1.354       .  A
Mn2365    Cl2389   2.556   1_655  S
C2366      C2452   1.464       .  S
N2368      N2369   1.345       .  A
N2368      N2374   1.315       .  A
N2369      C2377   1.372       .  A
N2370      N2372   1.312       .  A
N2370      N2371   1.319       .  A
N2371      C2378   1.347       .  A
N2372      N2373   1.320       .  A
N2372     Mn2376   2.194       .  S
N2373      C2378   1.349       .  A
N2374      N2375   1.340       .  A
N2374     Mn2388   2.320       .  S
N2375      C2377   1.375       .  A
Mn2376    Cl2389   2.534   1_655  S
C2378      C2441   1.473       .  S
N2379      N2385   1.315       .  A
N2379     Mn2387   2.115       .  S
N2380      C2390   1.336       .  A
N2381      N2382   1.309       .  A
N2381      N2383   1.320       .  A
N2381     Mn2388   2.125       .  S
N2382      C2391   1.335       .  A
N2383      N2384   1.331       .  A
N2383     Mn2387   2.299       .  S
N2384      C2391   1.367       .  A
N2385     Mn2388   2.263       .  S
N2386      C2390   1.364       .  A
C2390      C2592   1.450       .  S
C2391      C2494   1.474       .  S
N2392      N2393   1.340       .  A
N2392      N2398   1.315       .  A
N2392     Mn2421   2.299       .  S
N2393      C2400   1.371       .  A
N2394      N2396   1.308       .  A
N2394      N2395   1.313       .  A
N2394     Mn2410   2.155       .  S
N2395      C2401   1.345       .  A
N2396      N2397   1.324       .  A
N2397      C2401   1.356       .  A
N2398      N2399   1.337       .  A
N2399      C2400   1.366       .  A
C2401      C2483   1.461       .  S
N2402      N2408   1.325       .  A
N2402      N2403   1.325       .  A
N2402     Mn2432   2.218       .  S
N2403      C2411   1.358       .  A
N2404      N2405   1.320       .  A
N2404      N2406   1.320       .  A
N2405      C2412   1.348       .  A
N2406      N2407   1.311       .  A
N2407      C2412   1.349       .  A
N2408      N2409   1.311       .  A
N2408     Mn2410   2.222       .  S
N2409      C2411   1.344       .  A
Mn2410    Cl2434   2.541       .  S
C2411      C2438   1.486       .  S
C2412      C2564   1.457       .  S
N2413      N2414   1.315       .  A
N2413      N2419   1.320       .  A
N2414      C2422   1.347       .  A
N2415      N2417   1.324       .  A
N2415      N2416   1.316       .  A
N2415     Mn2433   2.226       .  S
N2416      C2423   1.349       .  A
N2417      N2418   1.317       .  A
N2417     Mn2421   2.192       .  S
N2418      C2423   1.348       .  A
N2419      N2420   1.318       .  A
N2420      C2422   1.351       .  A
C2422      C2550   1.463       .  S
C2423      C2455   1.474       .  S
N2424      N2425   1.325       .  A
N2424      N2430   1.313   1_545  A
N2425      C2435   1.355   1_545  A
N2426      N2427   1.341       .  A
N2426      N2428   1.319       .  A
N2427      C2436   1.369       .  A
N2428      N2429   1.343       .  A
N2428     Mn2432   2.322       .  S
N2429      C2436   1.376       .  A
N2430      N2431   1.315       .  A
N2430     Mn2433   2.174       .  S
N2431      C2435   1.348       .  A
Mn2432    Cl2434   2.567       .  S
C2435      C2466   1.466       .  S
C2437      C2438   1.415       .  A
C2437      C2442   1.392       .  A
C2437      H2444   1.078       .  S
C2438      C2439   1.406       .  A
C2439      C2440   1.403       .  A
C2439      N2446   1.428       .  S
C2440      C2441   1.408       .  A
C2440      H2445   1.072       .  S
C2441      C2442   1.404       .  A
C2442      N2443   1.431       .  S
N2443      O2447   1.261       .  A
N2443      O2448   1.262       .  A
N2446      O2450   1.261       .  A
N2446      O2449   1.262       .  A
C2451      C2452   1.394       .  A
C2451      C2456   1.382       .  A
C2451      H2458   1.081       .  S
C2452      C2453   1.406       .  A
C2453      C2454   1.402       .  A
C2453      N2460   1.426       .  S
C2454      C2455   1.410       .  A
C2454      H2459   1.086       .  S
C2455      C2456   1.423       .  A
C2456      N2457   1.435       .  S
N2457      O2461   1.259       .  A
N2457      O2462   1.260       .  A
N2460      O2464   1.262       .  A
N2460      O2463   1.261       .  A
C2465      C2466   1.400       .  A
C2465      C2470   1.402       .  A
C2465      H2472   1.080       .  S
C2466      C2467   1.406       .  A
C2467      C2468   1.397       .  A
C2467      N2474   1.429       .  S
C2468      C2469   1.407       .  A
C2468      H2473   1.080       .  S
C2469      C2470   1.415       .  A
C2470      N2471   1.428       .  S
N2471      O2475   1.261       .  A
N2471      O2476   1.261   1_554  A
N2474      O2478   1.262       .  A
N2474      O2477   1.262       .  A
C2479      C2480   1.405       .  A
C2479      C2484   1.399       .  A
C2479      H2486   1.079       .  S
C2480      C2481   1.417       .  A
C2481      C2482   1.397       .  A
C2481      N2488   1.430       .  S
C2482      C2483   1.397       .  A
C2482      H2487   1.080       .  S
C2483      C2484   1.407       .  A
C2484      N2485   1.429       .  S
N2485      O2489   1.262       .  A
N2485      O2490   1.262       .  A
N2488      O2492   1.262       .  A
N2488      O2491   1.262       .  A
C2493      C2494   1.402       .  A
C2493      C2498   1.409       .  A
C2493      H2500   1.088       .  S
C2494      C2495   1.420       .  A
C2495      C2496   1.392       .  A
C2495      N2502   1.428       .  S
C2496      C2497   1.394       .  A
C2496      H2501   1.086       .  S
C2497      C2498   1.408       .  A
C2498      N2499   1.440       .  S
N2499      O2503   1.263       .  A
N2499      O2504   1.263       .  A
N2502      O2506   1.262       .  A
N2502      O2505   1.262       .  A
C2507      C2508   1.393       .  A
C2507      C2512   1.393       .  A
C2507      H2514   1.079       .  S
C2508      C2509   1.414       .  A
C2509      C2510   1.383       .  A
C2509      N2516   1.432       .  S
C2510      C2511   1.396       .  A
C2510      H2515   1.078       .  S
C2511      C2512   1.415       .  A
C2512      N2513   1.428       .  S
N2513      O2517   1.262       .  A
N2513      O2518   1.262       .  A
N2516      O2520   1.262       .  A
N2516      O2519   1.262       .  A
C2521      C2522   1.397       .  A
C2521      C2526   1.390       .  A
C2521      H2528   1.080       .  S
C2522      C2523   1.406       .  A
C2523      C2524   1.393       .  A
C2523      N2530   1.429       .  S
C2524      C2525   1.399       .  A
C2524      H2529   1.082       .  S
C2525      C2526   1.403       .  A
C2526      N2527   1.428       .  S
N2527      O2531   1.262       .  A
N2527      O2532   1.262       .  A
N2530      O2534   1.261       .  A
N2530      O2905   1.261       .  A
O2533      N2902   1.261       .  A
C2535      C2536   1.400       .  A
C2535      C2540   1.396       .  A
C2535      H2542   1.081       .  S
C2536      C2537   1.403   1_554  A
C2537      C2538   1.394       .  A
C2537      N2544   1.427       .  S
C2538      C2539   1.399   1_556  A
C2538      H2543   1.081       .  S
C2539      C2540   1.409       .  A
C2540      N2541   1.430       .  S
N2541      O2545   1.262       .  A
N2541      O2546   1.262       .  A
N2544      O2548   1.261       .  A
N2544      O2547   1.262       .  A
C2549      C2550   1.403       .  A
C2549      C2554   1.395       .  A
C2549      H2556   1.080       .  S
C2551      C2552   1.387       .  A
C2551      N2558   1.428       .  S
C2552      C2553   1.394       .  A
C2552      H2557   1.081       .  S
C2554      N2555   1.429       .  S
N2555      O2559   1.262       .  A
N2558      O2562   1.261       .  A
C2563      C2564   1.399       .  A
C2563      H2570   1.080       .  S
C2564      C2565   1.410       .  A
C2565      N2572   1.429   1_545  S
C2566      C2567   1.400       .  A
C2566      H2571   1.080       .  S
C2567      C2568   1.399       .  A
C2568      N2569   1.425       .  S
N2569      O2574   1.262       .  A
N2572      O2575   1.262       .  A
C2577      C2582   1.392       .  A
C2577      H2584   1.082       .  S
C2578      C2579   1.405       .  A
C2579      C2580   1.395       .  A
C2579      N2586   1.428       .  S
C2580      H2585   1.082       .  S
C2581      C2582   1.405   1_455  A
C2582      N2583   1.429       .  S
N2583      O2587   1.262       .  A
N2583      O2588   1.262       .  A
N2586      O2590   1.261       .  A
N2586      O2589   1.262       .  A
C2591      C2596   1.390       .  A
C2591      H2598   1.073       .  S
C2592      C2593   1.401       .  A
C2593      C2594   1.398       .  A
C2593      N2600   1.428       .  S
C2594      H2599   1.070       .  S
C2595      C2596   1.403       .  A
C2596      N2597   1.429       .  S
N2597      O2601   1.262       .  A
N2597      O2602   1.262       .  A
N2600      O2604   1.262       .  A
N2600      O2603   1.261       .  A
C2605      C2606   1.538       .  S
C2605      C2611   1.568       .  S
C2605      C2609   1.580       .  S
C2605      C2739   1.615       .  S
C2606      H2613   1.087       .  S
C2606      C2607   1.367       .  D
C2607      C2608   1.584       .  S
C2607      C2649   1.531       .  S
C2608      C2612   1.579       .  S
C2608      C2610   1.575       .  S
C2608      H2614   1.110       .  S
C2609      H2615   1.085       .  S
C2609      C2610   1.396       .  D
C2610      C2694   1.568       .  S
C2611      H2616   1.085       .  S
C2611      C2612   1.390       .  D
C2612      C2772   1.557       .  S
C2617      C2618   1.559       .  S
C2617      C2623   1.544       .  S
C2617      C2621   1.554       .  S
C2617      C2808   1.612       .  S
C2618      H2625   1.085       .  S
C2618      C2619   1.390       .  D
C2619      C2620   1.608       .  S
C2619      C2749   1.581       .  S
C2620      C2624   1.606       .  S
C2620      C2622   1.577       .  S
C2620      H2626   1.110       .  S
C2621      H2627   1.086       .  S
C2621      C2622   1.382       .  D
C2622      C2659   1.539       .  S
C2623      H2628   1.085       .  S
C2623      C2624   1.383       .  D
C2624      C2704   1.580       .  S
N2629      N2630   1.315       .  A
N2629      N2635   1.320       .  A
N2630      C2637   1.350       .  A
N2631      N2632   1.310       .  A
N2631     Mn2647   2.201       .  S
N2633      N2634   1.323       .  A
N2633     Mn2658   2.187       .  S
N2634      C2638   1.353       .  A
N2635      N2636   1.319       .  A
N2636      C2637   1.345       .  A
C2637      C2925   1.449   1_545  S
C2638      C2967   1.466       .  S
N2639      N2645   1.309       .  A
N2641      N2642   1.331       .  A
N2641      N2643   1.318       .  A
N2642      C2649   1.363       .  A
N2643      N2644   1.337       .  A
N2644      C2649   1.365       .  A
N2645      N2646   1.310       .  A
N2645     Mn2647   2.148       .  S
N2646      C2648   1.340       .  A
Mn2647    Cl2671   2.545   1_556  S
C2648      C2894   1.448       .  S
N2650      N2651   1.338       .  A
N2650      N2656   1.316       .  A
N2651      C2659   1.366       .  A
N2652      N2653   1.310       .  A
N2652     Mn2670   2.144       .  S
N2653      C2660   1.340       .  A
N2654      N2655   1.323   1_544  A
N2656      N2657   1.332       .  A
N2657      C2659   1.363       .  A
C2660      C2911   1.453       .  S
N2661      N2662   1.323       .  A
N2661      N2667   1.321   1_655  A
N2661     Mn2669   2.184       .  S
N2662      C2672   1.351   1_655  A
N2663      N2664   1.315       .  A
N2663      N2665   1.320       .  A
N2664      C2673   1.341       .  A
N2665      N2666   1.319       .  A
N2666      C2673   1.353       .  A
C2672      C2953   1.464       .  S
C2673      C2939   1.448       .  S
N2674      N2675   1.309       .  A
N2674      N2680   1.321       .  A
N2675      C2682   1.338       .  A
N2676      N2678   1.319       .  A
N2676      N2677   1.318       .  A
N2676     Mn2692   2.241       .  S
N2677      C2683   1.356       .  A
N2678      N2679   1.310       .  A
N2678     Mn2703   2.129       .  S
N2679      C2683   1.339       .  A
N2680      N2681   1.323   1_554  A
N2681      C2682   1.353   1_556  A
C2682      C2897   1.443   1_554  S
C2683      C2880   1.448       .  S
N2684      N2690   1.310       .  A
N2684      N2685   1.323       .  A
N2685      C2693   1.357       .  A
N2686      N2687   1.342       .  A
N2686      N2688   1.319       .  A
N2687      C2694   1.372       .  A
N2688      N2689   1.340       .  A
N2688     Mn2714   2.292       .  S
N2689      C2694   1.368       .  A
N2690      N2691   1.316       .  A
N2690     Mn2692   2.190       .  S
N2691      C2693   1.354       .  A
Mn2692    Cl2716   2.583       .  S
C2693      C2841   1.484       .  S
N2695      N2696   1.328       .  A
N2695      N2701   1.315       .  A
N2695     Mn2703   2.240       .  S
N2696      C2704   1.359       .  A
N2697      N2699   1.308   1_556  A
N2697      N2698   1.321       .  A
N2697     Mn2715   2.202       .  S
N2698      C2705   1.359       .  A
N2699      N2700   1.317       .  A
N2700      C2705   1.351   1_554  A
N2701      N2702   1.354       .  A
N2702      C2704   1.384       .  A
Mn2703    Cl2716   2.530       .  S
C2705      C2852   1.482       .  S
N2706      N2707   1.320       .  A
N2706      N2712   1.325       .  A
N2706     Mn2714   2.182       .  S
N2707      C2717   1.349       .  A
N2708      N2709   1.325       .  A
N2708      N2710   1.327       .  A
N2709      C2718   1.354       .  A
N2710      N2711   1.311       .  A
N2711      C2718   1.339       .  A
N2712      N2713   1.315       .  A
N2712     Mn2715   2.241       .  S
N2713      C2717   1.353       .  A
C2717      C2869   1.472       .  S
C2718      C2908   1.451       .  S
N2719      N2720   1.316       .  A
N2719      N2725   1.319       .  A
N2719     Mn2748   2.240       .  S
N2720      C2727   1.355       .  A
N2721      N2723   1.320       .  A
N2721     Mn2737   2.270   1_455  S
N2722      C2728   1.363       .  A
N2723     Mn2748   2.149   1_455  S
N2724      C2728   1.341       .  A
N2725      N2726   1.315       .  A
N2725     Mn2737   2.134       .  S
N2726      C2727   1.342       .  A
C2727      C2883   1.462       .  S
C2728      C2950   1.459       .  S
N2729      N2735   1.312       .  A
N2729      N2730   1.306       .  A
N2729     Mn2759   2.139       .  S
N2730      C2738   1.339       .  A
N2731      N2732   1.346       .  A
N2731      N2733   1.315       .  A
N2731     Mn2737   2.337       .  S
N2732      C2739   1.378       .  A
N2733      N2734   1.339       .  A
N2734      C2739   1.370       .  A
N2735      N2736   1.323       .  A
N2736      C2738   1.354       .  A
Mn2737    Cl2761   2.556   1_655  S
C2738      C2824   1.464       .  S
N2740      N2741   1.345       .  A
N2740      N2746   1.315       .  A
N2741      C2749   1.372       .  A
N2742      N2744   1.312       .  A
N2742      N2743   1.319       .  A
N2743      C2750   1.347       .  A
N2744      N2745   1.320       .  A
N2744     Mn2748   2.194       .  S
N2745      C2750   1.349       .  A
N2746      N2747   1.340       .  A
N2746     Mn2760   2.320       .  S
N2747      C2749   1.375       .  A
Mn2748    Cl2761   2.534   1_655  S
C2750      C2813   1.473       .  S
N2751      N2757   1.315       .  A
N2751     Mn2759   2.115       .  S
N2752      C2762   1.336       .  A
N2753      N2754   1.309       .  A
N2753      N2755   1.320       .  A
N2753     Mn2760   2.125       .  S
N2754      C2763   1.335       .  A
N2755      N2756   1.331       .  A
N2755     Mn2759   2.299       .  S
N2756      C2763   1.367       .  A
N2757     Mn2760   2.263       .  S
N2758      C2762   1.364       .  A
C2762      C2964   1.450       .  S
C2763      C2866   1.474       .  S
N2764      N2765   1.340       .  A
N2764      N2770   1.315       .  A
N2764     Mn2793   2.299       .  S
N2765      C2772   1.371       .  A
N2766      N2768   1.308       .  A
N2766      N2767   1.313       .  A
N2766     Mn2782   2.155       .  S
N2767      C2773   1.345       .  A
N2768      N2769   1.324       .  A
N2769      C2773   1.356       .  A
N2770      N2771   1.337       .  A
N2771      C2772   1.366       .  A
C2773      C2855   1.461       .  S
N2774      N2780   1.325       .  A
N2774      N2775   1.325       .  A
N2774     Mn2804   2.218       .  S
N2775      C2783   1.358       .  A
N2776      N2777   1.320       .  A
N2776      N2778   1.320       .  A
N2777      C2784   1.348       .  A
N2778      N2779   1.311       .  A
N2779      C2784   1.349       .  A
N2780      N2781   1.311       .  A
N2780     Mn2782   2.222       .  S
N2781      C2783   1.344       .  A
Mn2782    Cl2806   2.541       .  S
C2783      C2810   1.486       .  S
C2784      C2936   1.457       .  S
N2785      N2786   1.315       .  A
N2785      N2791   1.320       .  A
N2786      C2794   1.347       .  A
N2787      N2789   1.324       .  A
N2787      N2788   1.316       .  A
N2787     Mn2805   2.226       .  S
N2788      C2795   1.349       .  A
N2789      N2790   1.317       .  A
N2789     Mn2793   2.192       .  S
N2790      C2795   1.348       .  A
N2791      N2792   1.318       .  A
N2792      C2794   1.351       .  A
C2794      C2922   1.463       .  S
C2795      C2827   1.474       .  S
N2796      N2797   1.325       .  A
N2796      N2802   1.313   1_545  A
N2797      C2807   1.355   1_545  A
N2798      N2799   1.341       .  A
N2798      N2800   1.319       .  A
N2799      C2808   1.369       .  A
N2800      N2801   1.343       .  A
N2800     Mn2804   2.322       .  S
N2801      C2808   1.376       .  A
N2802      N2803   1.315       .  A
N2802     Mn2805   2.174       .  S
N2803      C2807   1.348       .  A
Mn2804    Cl2806   2.567       .  S
C2807      C2838   1.466       .  S
C2809      C2810   1.415       .  A
C2809      C2814   1.392       .  A
C2809      H2816   1.078       .  S
C2810      C2811   1.406       .  A
C2811      C2812   1.403       .  A
C2811      N2818   1.428       .  S
C2812      C2813   1.408       .  A
C2812      H2817   1.072       .  S
C2813      C2814   1.404       .  A
C2814      N2815   1.431       .  S
N2815      O2819   1.261       .  A
N2815      O2820   1.262       .  A
N2818      O2822   1.261       .  A
N2818      O2821   1.262       .  A
C2823      C2824   1.394       .  A
C2823      C2828   1.382       .  A
C2823      H2830   1.081       .  S
C2824      C2825   1.406       .  A
C2825      C2826   1.402       .  A
C2825      N2832   1.426       .  S
C2826      C2827   1.410       .  A
C2826      H2831   1.086       .  S
C2827      C2828   1.423       .  A
C2828      N2829   1.435       .  S
N2829      O2833   1.259       .  A
N2829      O2834   1.260       .  A
N2832      O2836   1.262       .  A
N2832      O2835   1.261       .  A
C2837      C2838   1.400       .  A
C2837      C2842   1.401       .  A
C2837      H2844   1.080       .  S
C2838      C2839   1.406       .  A
C2839      C2840   1.397       .  A
C2839      N2846   1.429       .  S
C2840      C2841   1.407       .  A
C2840      H2845   1.080       .  S
C2841      C2842   1.415       .  A
C2842      N2843   1.428       .  S
N2843      O2847   1.261       .  A
N2843      O2848   1.261       .  A
N2846      O2850   1.262       .  A
N2846      O2849   1.262       .  A
C2851      C2852   1.405       .  A
C2851      C2856   1.399       .  A
C2851      H2858   1.079       .  S
C2852      C2853   1.417       .  A
C2853      C2854   1.397       .  A
C2853      N2860   1.430       .  S
C2854      C2855   1.397       .  A
C2854      H2859   1.080       .  S
C2855      C2856   1.407       .  A
C2856      N2857   1.429       .  S
N2857      O2861   1.262       .  A
N2857      O2862   1.262       .  A
N2860      O2864   1.262       .  A
N2860      O2863   1.262   1_556  A
C2865      C2866   1.402       .  A
C2865      C2870   1.409       .  A
C2865      H2872   1.088       .  S
C2866      C2867   1.420       .  A
C2867      C2868   1.392       .  A
C2867      N2874   1.428       .  S
C2868      C2869   1.394       .  A
C2868      H2873   1.086       .  S
C2869      C2870   1.408       .  A
C2870      N2871   1.440       .  S
N2871      O2875   1.263       .  A
N2871      O2876   1.263       .  A
N2874      O2878   1.262       .  A
N2874      O2877   1.262       .  A
C2879      C2880   1.393       .  A
C2879      C2884   1.393       .  A
C2879      H2886   1.079       .  S
C2880      C2881   1.414       .  A
C2881      C2882   1.383       .  A
C2881      N2888   1.432       .  S
C2882      C2883   1.396       .  A
C2882      H2887   1.078       .  S
C2883      C2884   1.415       .  A
C2884      N2885   1.428       .  S
N2885      O2889   1.262       .  A
N2885      O2890   1.262       .  A
N2888      O2892   1.262       .  A
N2888      O2891   1.262       .  A
C2893      C2894   1.397   1_554  A
C2893      C2898   1.390       .  A
C2893      H2900   1.080       .  S
C2894      C2895   1.406       .  A
C2895      C2896   1.393       .  A
C2895      N2902   1.429       .  S
C2896      C2897   1.399       .  A
C2896      H2901   1.082       .  S
C2897      C2898   1.403   1_556  A
C2898      N2899   1.428       .  S
N2899      O2903   1.262       .  A
N2899      O2904   1.262       .  A
N2902      O2906   1.261       .  A
C2907      C2908   1.400       .  A
C2907      C2912   1.396       .  A
C2907      H2914   1.081       .  S
C2908      C2909   1.403       .  A
C2909      C2910   1.394       .  A
C2909      N2916   1.427       .  S
C2910      C2911   1.399       .  A
C2910      H2915   1.081       .  S
C2911      C2912   1.409       .  A
C2912      N2913   1.430       .  S
N2913      O2917   1.262       .  A
N2913      O2918   1.262       .  A
N2916      O2920   1.261       .  A
N2916      O2919   1.262       .  A
C2921      C2922   1.403       .  A
C2921      C2926   1.395       .  A
C2921      H2928   1.080       .  S
C2923      C2924   1.387       .  A
C2923      N2930   1.428       .  S
C2924      C2925   1.394       .  A
C2924      H2929   1.081       .  S
C2926      N2927   1.429       .  S
N2927      O2931   1.262       .  A
N2930      O2934   1.261       .  A
C2935      C2936   1.399       .  A
C2935      H2942   1.080       .  S
C2936      C2937   1.410       .  A
C2937      N2944   1.429   1_545  S
C2938      C2939   1.400       .  A
C2938      H2943   1.080       .  S
C2939      C2940   1.399       .  A
C2940      N2941   1.425       .  S
N2941      O2946   1.262       .  A
N2944      O2947   1.262       .  A
C2949      C2954   1.392       .  A
C2949      H2956   1.082       .  S
C2950      C2951   1.405       .  A
C2951      C2952   1.395       .  A
C2951      N2958   1.428       .  S
C2952      H2957   1.082       .  S
C2953      C2954   1.405   1_455  A
C2954      N2955   1.429       .  S
N2955      O2959   1.262       .  A
N2955      O2960   1.262       .  A
N2958      O2962   1.261       .  A
N2958      O2961   1.262       .  A
C2963      C2968   1.390       .  A
C2963      H2970   1.073       .  S
C2964      C2965   1.402       .  A
C2965      C2966   1.398       .  A
C2965      N2972   1.428       .  S
C2966      H2971   1.070       .  S
C2967      C2968   1.403       .  A
C2968      N2969   1.429       .  S
N2969      O2973   1.262       .  A
N2969      O2974   1.262       .  A
N2972      O2976   1.262       .  A
N2972      O2975   1.261       .  A
