geometry optimzed in LAMMPS
_audit_creation_date              2020-12-01 
_audit_creation_method            'lammps2cif' 
_symmetry_space_group_name_H-M    'P1' 
_symmetry_Int_Tables_number       1 
_symmetry_cell_setting            triclinic 
loop_ 
_symmetry_equiv_pos_as_xyz 
  x,y,z 
_cell_length_a                    24.63022943 
_cell_length_b                    25.907088581060844 
_cell_length_c                    25.990933693534835 
_cell_angle_alpha                 94.82754196223254 
_cell_angle_beta                  90.15016242998708 
_cell_angle_gamma                 90.16728401253208 
loop_ 
_atom_site_label 
_atom_site_type_symbol 
_atom_site_fract_x 
_atom_site_fract_y 
_atom_site_fract_z 
_atom_site_charge 
C1          C  0.19381726  0.19354283  0.21135921     0.89100
C2          C  0.23228620  0.16471302  0.24575973    -0.51200
C3          C  0.26657597  0.19700229  0.27479240     0.12000
C4          C  0.25911851  0.25472843  0.26689762     0.23000
C5          C  0.16417949  0.23352654  0.24830307    -0.51900
C6          C  0.19864486  0.26571891  0.27720382     0.12100
C7          C  0.23117765  0.22577764  0.17931031    -0.51400
C8          C  0.26519934  0.25773570  0.20854496     0.12700
H9          H  0.23307010  0.12284307  0.24632725     0.17200
H10         H  0.28710447  0.28103233  0.29035867     0.02900
H11         H  0.12029330  0.23726782  0.25001279     0.17500
H12         H  0.23032549  0.22398431  0.13738681     0.17300
C13         C  0.16277853  0.40000184  0.36638598     0.32600
C14         C  0.15396111  0.49280415  0.42175968     0.32600
C15         C  0.18815607  0.44567273  0.34123724    -0.03600
C16         C  0.10469038  0.41839724  0.37736137    -0.04400
C17         C  0.18848002  0.40270649  0.42027998    -0.04300
C18         C  0.18355835  0.49394301  0.37007238    -0.03600
C19         C  0.09978572  0.46612880  0.40602343    -0.04400
C20         C  0.18387436  0.45101204  0.44907111    -0.04300
C21         C  0.18035710  0.53083024  0.33472863    -0.29600
N22         N  0.18399822  0.50717756  0.28662202     0.16900
C23         C  0.18758224  0.45561720  0.28979362    -0.29700
H24         H  0.18446440  0.42697535  0.25707827     0.18800
C25         C  0.04510548  0.47620588  0.41073854    -0.28600
N26         N  0.01721549  0.43593242  0.38568047     0.15600
C27         C  0.05338527  0.40071339  0.36499003    -0.28600
C28         C  0.18097793  0.44088275  0.50039735    -0.28900
N29         N  0.18475456  0.38935772  0.50364408     0.16100
H30         H  0.17101581  0.46858883  0.53249723     0.18700
C31         C  0.18814444  0.36562837  0.45553222    -0.28900
H32         H  0.18478462  0.32418171  0.44642636     0.18700
H33         H  0.04299612  0.36502736  0.34238003     0.18700
H34         H  0.17058419  0.57135594  0.34333701     0.18800
H35         H  0.02731047  0.51079490  0.42982204     0.18700
C36         C  0.18871378  0.69837965  0.57777144     0.89100
C37         C  0.22770010  0.72618498  0.54291331    -0.51200
C38         C  0.25962859  0.69311103  0.51245286     0.12000
C39         C  0.24889017  0.63537939  0.51914375     0.23000
C40         C  0.15575445  0.66042454  0.54103636    -0.51900
C41         C  0.18733209  0.62716551  0.51050446     0.12100
C42         C  0.22546874  0.66375495  0.60791698    -0.51400
C43         C  0.25685897  0.63087590  0.57715852     0.12700
H44         H  0.23140918  0.76805222  0.54396074     0.17200
H45         H  0.27470539  0.60831844  0.49447162     0.02900
H46         H  0.11169279  0.65850663  0.54089366     0.17500
H47         H  0.22654377  0.66509071  0.64981130     0.17300
C48         C  0.39184370  0.15497436  0.36811441     0.32600
C49         C  0.47832250  0.13570884  0.42936798     0.32600
C50         C  0.38791715  0.17684150  0.42455800    -0.03600
C51         C  0.40432906  0.09772378  0.37311317    -0.04400
C52         C  0.44651986  0.17613385  0.35157410    -0.04300
C53         C  0.43232488  0.16700594  0.45575476    -0.03600
C54         C  0.44828663  0.08801841  0.40496750    -0.04400
C55         C  0.49083907  0.16627005  0.38283989    -0.04300
C56         C  0.41824338  0.18143611  0.50589462    -0.29600
N57         N  0.36694149  0.19978537  0.50559869     0.16900
C58         C  0.34764246  0.19704690  0.45658373    -0.29700
H59         H  0.30656210  0.20618677  0.44563329     0.18800
C60         C  0.45036030  0.03564753  0.40840946    -0.28600
N61         N  0.40959133  0.01344394  0.37900252     0.15600
C62         C  0.38154587  0.05066059  0.35670575    -0.28600
C63         C  0.53584381  0.18752887  0.36156171    -0.28900
N64         N  0.51961055  0.20973783  0.31871479     0.16100
H65         H  0.57723008  0.18633929  0.37555631     0.18700
C66         C  0.46542180  0.20310510  0.31200442    -0.28900
H67         H  0.44192447  0.21621348  0.28035515     0.18700
H68         H  0.34658210  0.04395622  0.33168053     0.18700
H69         H  0.44203925  0.17620211  0.54014981     0.18800
H70         H  0.47925121  0.01504518  0.43045863     0.18700
C71         C  0.68896266  0.26028330  0.14948448     0.89100
C72         C  0.72381155  0.29709227  0.18570511    -0.51200
C73         C  0.69364784  0.33075241  0.21725278     0.12000
C74         C  0.63189219  0.32488669  0.20914578     0.23000
C75         C  0.65051352  0.23388385  0.18541446    -0.51900
C76         C  0.62090197  0.26777414  0.21658171     0.12100
C77         C  0.65235553  0.29545753  0.11969086    -0.51400
C78         C  0.62216267  0.32912049  0.15107000     0.12700
H79         H  0.76775139  0.29475246  0.18819092     0.17200
H80         H  0.60726823  0.35209113  0.23485372     0.02900
H81         H  0.64734863  0.19212505  0.18649905     0.17500
H82         H  0.64889540  0.29246739  0.07786576     0.17300
C83         C  0.20558374  0.24907310  0.69270356     0.89100
C84         C  0.17207729  0.28223693  0.65758728    -0.51200
C85         C  0.20385080  0.31207690  0.62873779     0.12000
C86         C  0.26469846  0.30629301  0.63752334     0.23000
C87         C  0.24439392  0.21804743  0.65588617    -0.51900
C88         C  0.27498463  0.24843954  0.62717542     0.12100
C89         C  0.24218638  0.28767694  0.72530557    -0.51400
C90         C  0.27303212  0.31747850  0.69559873     0.12700
H91         H  0.12815003  0.28042952  0.65413716     0.17200
H92         H  0.29022699  0.33044983  0.61358465     0.02900
H93         H  0.24628745  0.17599000  0.65172941     0.17500
H94         H  0.24462760  0.29008298  0.76715942     0.17300
C95         C  0.72197535  0.47322920  0.44420763     0.32600
C96         C  0.72809598  0.41819748  0.35134585     0.32600
C97         C  0.69578252  0.49910480  0.39957734    -0.03600
C98         C  0.77940599  0.46147579  0.42460475    -0.04400
C99         C  0.69523422  0.41979081  0.44162937    -0.04300
C100        C  0.69896367  0.47046465  0.35118528    -0.03600
C101        C  0.78296278  0.43309984  0.37681090    -0.04400
C102        C  0.69853860  0.39095630  0.39344708    -0.04300
C103        C  0.70116774  0.50620807  0.31467036    -0.29600
N104        N  0.69826300  0.55431288  0.33876098     0.16900
C105        C  0.69615908  0.55078427  0.39016476    -0.29700
H106        H  0.70038543  0.58335527  0.41886392     0.18800
C107        C  0.83739437  0.42760888  0.36564025    -0.28600
N108        N  0.86637758  0.45196312  0.40548078     0.15600
C109        C  0.83115235  0.47281700  0.44142384    -0.28600
C110        C  0.69937774  0.33936998  0.40354297    -0.28900
N111        N  0.69513862  0.33636083  0.45498612     0.16100
H112        H  0.70779866  0.30676402  0.37590977     0.18700
C113        C  0.69383309  0.38467925  0.47862987    -0.28900
H114        H  0.69723222  0.39375228  0.51995863     0.18700
H115        H  0.84249480  0.49498709  0.47699707     0.18700
H116        H  0.70996485  0.49788621  0.27402352     0.18800
H117        H  0.85420974  0.40835861  0.33076460     0.18700
C118        C  0.68005062  0.74791456  0.20382718     0.89100
C119        C  0.63996091  0.77788356  0.24124331    -0.51200
C120        C  0.60787639  0.74563457  0.26763910     0.12000
C121        C  0.61868089  0.68807626  0.25434190     0.23000
C122        C  0.71203320  0.71227249  0.23754893    -0.51900
C123        C  0.67922986  0.68104779  0.26374877     0.12100
C124        C  0.64419107  0.71091074  0.16900083    -0.51400
C125        C  0.61242695  0.67975463  0.19590193     0.12700
H126        H  0.63687469  0.81980819  0.24581286     0.17200
H127        H  0.59250043  0.66199717  0.27558693     0.02900
H128        H  0.75606096  0.71028463  0.23871101     0.17500
H129        H  0.64522739  0.70834057  0.12706417     0.17300
C130        C  0.67452678  0.14724124  0.59630623     0.89100
C131        C  0.63548219  0.11589071  0.55873582    -0.51200
C132        C  0.60305823  0.14682208  0.53142886     0.12000
C133        C  0.61243025  0.20484062  0.54406599     0.23000
C134        C  0.70611596  0.18308656  0.56248614    -0.51900
C135        C  0.67297606  0.21309221  0.53528328     0.11100
C136        C  0.63766627  0.18380877  0.63022579    -0.51400
C137        C  0.60540509  0.21383506  0.60245300     0.12700
H138        H  0.63350876  0.07387705  0.55446281     0.17200
H139        H  0.58592925  0.22983214  0.52194806     0.02900
H140        H  0.75012267  0.18561937  0.56142959     0.17500
H141        H  0.63819230  0.18672825  0.67217604     0.17300
C142        C  0.39111412  0.73486991  0.42543018     0.32600
C143        C  0.47921827  0.75282522  0.36594609     0.32600
C144        C  0.39188359  0.70538955  0.37176117    -0.03600
C145        C  0.39976267  0.79128129  0.41338010    -0.04400
C146        C  0.44620949  0.72085594  0.44753398    -0.04300
C147        C  0.43754559  0.71455894  0.34116196    -0.03600
C148        C  0.44451258  0.79999900  0.38235533    -0.04400
C149        C  0.49125807  0.73016517  0.41712577    -0.04300
C150        C  0.42178604  0.70520041  0.29051073    -0.29600
N151        N  0.36943980  0.68996024  0.28959256     0.16900
C152        C  0.35021828  0.69107389  0.33822792    -0.29700
H153        H  0.30786947  0.68684461  0.34818701     0.18800
C154        C  0.44640976  0.85176217  0.37588674    -0.28600
N155        N  0.40475400  0.87493951  0.40279106     0.15600
C156        C  0.37635079  0.83874685  0.42648782    -0.28600
C157        C  0.53598192  0.71131460  0.44080982    -0.28900
N158        N  0.51898999  0.69121573  0.48443600     0.16100
H159        H  0.57735456  0.71075761  0.42678418     0.18700
C160        C  0.46451475  0.69657113  0.48917913    -0.28900
H161        H  0.44015181  0.68250868  0.51971601     0.18700
H162        H  0.34206923  0.84661261  0.45188716     0.18700
H163        H  0.44488436  0.71393268  0.25689616     0.18800
H164        H  0.47714193  0.87159542  0.35522253     0.18700
C165        C  0.21182059  0.64548433  0.09706719     0.89100
C166        C  0.17687144  0.61203273  0.13068370    -0.51200
C167        C  0.20734294  0.58332762  0.16168959     0.12000
C168        C  0.26850263  0.59031918  0.15623903     0.23000
C169        C  0.24811046  0.67780545  0.13560885    -0.51900
C170        C  0.27744155  0.64844678  0.16628829     0.12100
C171        C  0.25078945  0.60731215  0.06701559    -0.51400
C172        C  0.28037613  0.57852430  0.09888031     0.12700
H173        H  0.13280506  0.61296148  0.13170722     0.17200
H174        H  0.29293785  0.56711034  0.18198856     0.02900
H175        H  0.24950391  0.71989923  0.13917173     0.17500
H176        H  0.25550030  0.60440227  0.02535048     0.17300
C177        C  0.68757362  0.62669951  0.64965960     0.89100
C178        C  0.71957387  0.58961171  0.61173596    -0.51200
C179        C  0.68678056  0.55932513  0.57911501     0.12000
C180        C  0.62577628  0.56842648  0.58778856     0.23000
C181        C  0.65091168  0.65719418  0.61553298    -0.51900
C182        C  0.61874074  0.62649321  0.58331697     0.12100
C183        C  0.64884120  0.59230180  0.67797704    -0.51400
C184        C  0.61634800  0.56196648  0.64526793     0.12700
H185        H  0.76358422  0.58927303  0.60913801     0.17200
H186        H  0.59911799  0.54383054  0.56116810     0.02900
H187        H  0.65054364  0.69923263  0.61657300     0.17500
H188        H  0.64590796  0.59330322  0.71975404     0.17300
C189        C  0.49547367  0.41976274  0.10722336     0.32600
C190        C  0.40842818  0.48051306  0.09062572     0.32600
C191        C  0.49654092  0.47392498  0.13619064    -0.03600
C192        C  0.48601196  0.43142645  0.05092896    -0.04400
C193        C  0.44029669  0.39845135  0.12240385    -0.04300
C194        C  0.45129008  0.50525891  0.12769763    -0.03600
C195        C  0.44171009  0.46319018  0.04291610    -0.04400
C196        C  0.39572633  0.42954586  0.11381170    -0.04300
C197        C  0.46823235  0.55594179  0.13606648    -0.29600
N198        N  0.52096342  0.55628491  0.15015901     0.16900
C199        C  0.53919820  0.50709127  0.14913365    -0.29700
H200        H  0.58139120  0.49636006  0.15292979     0.18800
C201        C  0.43832442  0.46882656  0.99115332    -0.28600
N202        N  0.47868798  0.44063302  0.96723179     0.15600
C203        C  0.50768885  0.41700208  0.00306016    -0.28600
C204        C  0.35031678  0.40460486  0.13003564    -0.28900
N205        N  0.36647560  0.35943118  0.14790440     0.16100
H206        H  0.30883355  0.41824504  0.12922876     0.18700
C207        C  0.42114197  0.35505802  0.14361057    -0.28900
H208        H  0.44495769  0.32294210  0.15524292     0.18700
H209        H  0.54108270  0.39059631  0.99469685     0.18700
H210        H  0.44535920  0.58993337  0.12783316     0.18800
H211        H  0.40726387  0.48964957  0.97191249     0.18700
C212        C  0.48714843  0.47399054  0.68639984     0.32600
C213        C  0.40007588  0.41463823  0.70618492     0.32600
C214        C  0.48831624  0.41836911  0.66099011    -0.03600
C215        C  0.47738453  0.46626070  0.74344477    -0.04400
C216        C  0.43226391  0.49401927  0.66891977    -0.04300
C217        C  0.44322097  0.38767408  0.67117681    -0.03600
C218        C  0.43299531  0.43525134  0.75332286    -0.04400
C219        C  0.38757451  0.46357644  0.67915903    -0.04300
C220        C  0.45944159  0.33672831  0.66350892    -0.29600
N221        N  0.51178334  0.33586344  0.64795819     0.16900
C222        C  0.53030207  0.38500089  0.64741541    -0.29700
H223        H  0.57227751  0.39560333  0.64167574     0.18800
C224        C  0.43076273  0.43183210  0.80557283    -0.28600
N225        N  0.47204696  0.46061517  0.82766790     0.15600
C226        C  0.50044911  0.48244487  0.79037782    -0.28600
C227        C  0.34236876  0.48692151  0.66037720    -0.28900
N228        N  0.35875242  0.53045929  0.63925767     0.16100
H229        H  0.30082735  0.47333782  0.66178996     0.18700
C230        C  0.41341572  0.53538959  0.64412007    -0.28900
H231        H  0.43743675  0.56656070  0.63058352     0.18700
H232        H  0.53491841  0.50817802  0.79704720     0.18700
H233        H  0.43635486  0.30305006  0.67256280     0.18800
H234        H  0.40054013  0.41138328  0.82625595     0.18700
C235        C  0.06621575  0.83350108  0.00361208     0.45000
N236        N  0.00687228  0.85673034  0.94972514     0.03900
C237        C  0.00631113  0.07488119  0.81182357    -0.03900
H238        H  0.97597305  0.11135335  0.00830243     0.09400
C239        C  0.80108774  0.01575262  0.99034959    -0.04300
Co240      Co  0.04081691  0.95037898  0.89764748     0.74200
N241        N  0.99542295  0.04397926  0.95685660    -0.23500
Co242      Co  0.93520709  0.03896681  0.89901918     0.74100
C243        C  0.81944966  0.06622104  0.01381260     0.45200
N244        N  0.84611646  0.88637529  0.95332685     0.03600
N245        N  0.87497875  0.03923726  0.95431635     0.03700
N246        N  0.07740477  0.02039625  0.81408612    -0.44300
H247        H  0.12177697  0.90221833  0.98857023     0.09400
N248        N  0.03530261  0.00984238  0.95669537     0.03900
N249        N  0.87480349  0.03019663  0.84115354     0.03700
C250        C  0.82334408  0.03890066  0.77568525     0.45300
N251        N  0.88588382  0.85208240  0.95237939    -0.22900
C252        C  0.07492166  0.88388676  0.79725097    -0.03800
N253        N  0.01894716  0.82005768  0.98018248    -0.44000
N254        N  0.86642788  0.05974313  0.80249506    -0.44300
C255        C  0.05547701  0.83637799  0.76917779     0.45100
N256        N  0.03749530  0.00676630  0.84442260     0.03900
N257        N  0.88596411  0.84478904  0.83949164    -0.22900
N258        N  0.04369276  0.89384086  0.95087293    -0.23400
N259        N  0.84445659  0.87683619  0.84078549     0.03600
H260        H  0.90172491  0.77148681  0.79710890     0.09500
H261        H  0.77109035  0.96858116  0.79213586     0.09500
N262        N  0.99591776  0.03868116  0.84423484    -0.23500
N263        N  0.83845653  0.00189591  0.95410308    -0.23100
N264        N  0.00625648  0.85261290  0.83671574     0.03900
C265        C  0.05042127  0.06142404  0.02386911     0.45300
C266        C  0.87841194  0.82218127  0.99177461    -0.04300
N267        N  0.83924647  0.99186174  0.84123138    -0.23100
H268        H  0.76373879  0.99515249  0.99657631     0.09500
N269        N  0.06935910  0.01906564  0.99600249    -0.44300
H270        H  0.90399002  0.79033667  0.00094530     0.09500
C271        C  0.82485307  0.81715221  0.78138524     0.45200
C272        C  0.08316296  0.88237266  0.98387515    -0.03800
Co273      Co  0.94631080  0.85061543  0.89460136     0.73800
N274        N  0.81131277  0.88176035  0.99146147    -0.44000
C275        C  0.06005017  0.06259375  0.79154587     0.45400
N276        N  0.01318689  0.81879491  0.79592352    -0.44000
Co277      Co  0.84087139  0.93921653  0.89744068     0.73900
C278        C  0.80499029  0.99436329  0.80138897    -0.04400
C279        C  0.00181844  0.07843332  0.99804980    -0.03900
N280        N  0.04192969  0.89098076  0.83825411    -0.23400
N281        N  0.86486201  0.07837220  0.98890236    -0.44200
H282        H  0.98277087  0.10969992  0.80887834     0.09400
C283        C  0.87732119  0.80610825  0.80312953    -0.04300
Cl284      Cl  0.94082066  0.94480270  0.89724118    -0.47300
C285        C  0.82907211  0.84229117  0.01750388     0.45200
H286        H  0.10833236  0.90882280  0.78842945     0.09400
N287        N  0.80605986  0.86101431  0.80712709    -0.44000
C288        C  0.48400161  0.43156253  0.91241635    -0.13800
C289        C  0.47986003  0.47068274  0.88208680    -0.29000
H290        H  0.48843176  0.39207944  0.89530802     0.15200
H291        H  0.47926359  0.51048793  0.89896985     0.15800
C292        C  0.72080770  0.66186150  0.68373459    -0.15900
C293        C  0.74363090  0.69679349  0.70856860     0.08100
C294        C  0.76817890  0.74073796  0.73460524     0.10000
C295        C  0.79122532  0.77768162  0.75581356    -0.16800
C296        C  0.57275357  0.53090577  0.66296647    -0.10700
C297        C  0.53439261  0.50568816  0.67507863    -0.12200
C298        C  0.10193025  0.79458099  0.02068225    -0.15900
C299        C  0.12779984  0.75800984  0.03284048     0.08100
C300        C  0.15586130  0.71427542  0.04816313     0.10000
C301        C  0.18024814  0.67955446  0.06599766    -0.16800
C302        C  0.36114900  0.51346556  0.08217150    -0.10700
C303        C  0.32297004  0.54262872  0.08303873    -0.12200
C304        C  0.55248872  0.66712410  0.51844124    -0.10700
C305        C  0.58206038  0.64741587  0.54779089    -0.12200
C306        C  0.33820350  0.68053514  0.24514880    -0.10700
C307        C  0.31092190  0.66939080  0.20771894    -0.12200
C308        C  0.79655757  0.06063656  0.73294016    -0.15900
C309        C  0.77101997  0.07695722  0.69788229     0.08100
C310        C  0.73875738  0.09666169  0.65858044     0.10000
C311        C  0.71004564  0.11650191  0.62789466    -0.16800
C312        C  0.54321931  0.29134919  0.63746336    -0.10700
C313        C  0.57107076  0.25433335  0.62501474    -0.12200
C314        C  0.71544042  0.77906507  0.17245784    -0.15900
C315        C  0.74431737  0.79680444  0.14054206     0.08100
C316        C  0.77664794  0.81249024  0.09927600     0.10000
C317        C  0.80218056  0.82503746  0.06247327    -0.16800
C318        C  0.55271859  0.60070723  0.16020846    -0.10700
C319        C  0.57981083  0.63832499  0.17253639    -0.12200
C320        C  0.56515571  0.76122654  0.30390146    -0.10700
C321        C  0.52697366  0.76174804  0.33326433    -0.12200
C322        C  0.71700979  0.50288115  0.49479102    -0.10700
C323        C  0.70665894  0.52763131  0.53494331    -0.12200
C324        C  0.69585948  0.29090142  0.48054814    -0.10700
C325        C  0.69122413  0.25336374  0.50455754    -0.12200
C326        C  0.69763130  0.63934193  0.29238685    -0.10700
C327        C  0.70098980  0.60046969  0.31448764    -0.12200
C328        C  0.09567262  0.10122486  0.77346786    -0.15900
C329        C  0.12135835  0.13703446  0.75908889     0.08100
C330        C  0.14898280  0.17985639  0.74101138     0.10000
C331        C  0.17312799  0.21419338  0.72216357    -0.16800
C332        C  0.35275815  0.38249045  0.71607215    -0.10700
C333        C  0.31440643  0.35350142  0.71433565    -0.12200
C334        C  0.71968068  0.22166256  0.11663147    -0.15900
C335        C  0.74125154  0.18559750  0.09229722     0.08100
C336        C  0.76521694  0.14155444  0.06555157     0.10000
C337        C  0.78756760  0.10508796  0.04265104    -0.16800
C338        C  0.57992958  0.36118380  0.13160990    -0.10700
C339        C  0.54248195  0.38706777  0.11808329    -0.12200
C340        C  0.71632039  0.36273880  0.26054309    -0.10700
C341        C  0.72741790  0.38809042  0.30047319    -0.12200
C342        C  0.39777913  0.92972538  0.41057573    -0.13800
C343        C  0.40045045  0.95896498  0.37060542    -0.29000
H344        H  0.39484435  0.94780865  0.44973198     0.15200
H345        H  0.39977896  0.94098818  0.33130068     0.15800
C346        C  0.56190868  0.12912372  0.49416657    -0.10700
C347        C  0.52478757  0.12676031  0.46347860    -0.12200
C348        C  0.33675481  0.21464110  0.54958105    -0.10700
C349        C  0.30979043  0.22831501  0.58650103    -0.12200
C350        C  0.55399209  0.23273294  0.28454025    -0.10700
C351        C  0.58386432  0.25057499  0.25409847    -0.12200
C352        C  0.15531437  0.73326404  0.61279061    -0.15900
C353        C  0.13001882  0.75904079  0.64562280     0.08100
C354        C  0.10222869  0.78681761  0.68714893     0.10000
C355        C  0.07998885  0.80935150  0.72405669    -0.16800
C356        C  0.29404166  0.59499057  0.59785448    -0.10700
C357        C  0.32433117  0.56516418  0.61656147    -0.12200
C358        C  0.34318193  0.72353897  0.45712140    -0.10700
C359        C  0.30427030  0.71083132  0.48177860    -0.12200
C360        C  0.92434436  0.45781726  0.41035536    -0.13800
C361        C  0.95932911  0.43041422  0.37947731    -0.29000
H362        H  0.93989798  0.48421913  0.44154854     0.15200
H363        H  0.94412768  0.40158087  0.35029651     0.15800
C364        C  0.18487400  0.34115789  0.58750110    -0.10700
C365        C  0.18164779  0.36412604  0.54917556    -0.12200
C366        C  0.18647127  0.55460644  0.20237282    -0.10700
C367        C  0.18191425  0.53202608  0.24081539    -0.12200
C368        C  0.15400948  0.54372403  0.45230701    -0.10700
C369        C  0.16540885  0.58349549  0.47812052    -0.12200
C370        C  0.07721838  0.08668362  0.06856499    -0.15900
C371        C  0.10080457  0.10822761  0.10520900     0.08100
C372        C  0.13025407  0.13488618  0.14623211     0.10000
C373        C  0.15751681  0.15977443  0.17821697    -0.16800
C374        C  0.33205775  0.32335370  0.16843997    -0.10700
C375        C  0.30203858  0.29288211  0.18644175    -0.12200
C376        C  0.30845428  0.17866407  0.30786747    -0.10700
C377        C  0.34524068  0.16623390  0.33511869    -0.12200
C378        C  0.16960707  0.34964384  0.33606918    -0.10700
C379        C  0.18044741  0.31005835  0.31017087    -0.12200
loop_ 
_geom_bond_atom_site_label_1 
_geom_bond_atom_site_label_2 
_geom_bond_distance 
_geom_bond_site_symmetry_2 
_ccdc_geom_bond_type 
C1            C2   1.539       .  S
C1            C7   1.534       .  S
C1            C5   1.539       .  S
C1          C373   1.474       .  S
C2            H9   1.086       .  S
C2            C3   1.367       .  D
C3            C4   1.538       .  S
C3          C376   1.448       .  S
C4            C8   1.533       .  S
C4            C6   1.537       .  S
C4           H10   1.112       .  S
C5           H11   1.086       .  S
C5            C6   1.367       .  D
C6          C379   1.447       .  S
C7           H12   1.087       .  S
C7            C8   1.361       .  D
C8          C375   1.438       .  S
C13         C378   1.477       .  S
C13          C15   1.532       .  S
C13          C17   1.532       .  S
C13          C16   1.529       .  S
C14         C368   1.481       .  S
C14          C18   1.533       .  S
C14          C20   1.533       .  S
C14          C19   1.539       .  S
C15          C23   1.383       .  A
C15          C18   1.408       .  A
C16          C27   1.371       .  A
C16          C19   1.395       .  A
C17          C31   1.382       .  A
C17          C20   1.408       .  A
C18          C21   1.382       .  A
C19          C25   1.376       .  A
C20          C28   1.383       .  A
C21          N22   1.349       .  A
C21          H34   1.083       .  S
N22          C23   1.348       .  A
N22         C367   1.401       .  S
C23          H24   1.083       .  S
C25          N26   1.365       .  A
C25          H35   1.082       .  S
N26          C27   1.356       .  A
N26         C361   1.440   1_455  S
C27          H33   1.083       .  S
C28          N29   1.348       .  A
C28          H30   1.083       .  S
N29          C31   1.349       .  A
N29         C365   1.401       .  S
C31          H32   1.083       .  S
C36          C37   1.540       .  S
C36          C42   1.535       .  S
C36          C40   1.540       .  S
C36         C352   1.480       .  S
C37          H44   1.086       .  S
C37          C38   1.368       .  D
C38          C39   1.542       .  S
C38         C359   1.456       .  S
C39          C43   1.534       .  S
C39          C41   1.544       .  S
C39          H45   1.112       .  S
C40          H46   1.086       .  S
C40          C41   1.367       .  D
C41         C369   1.454       .  S
C42          H47   1.087       .  S
C42          C43   1.362       .  D
C43         C356   1.442       .  S
C48         C377   1.475       .  S
C48          C50   1.531       .  S
C48          C52   1.529       .  S
C48          C51   1.532       .  S
C49         C347   1.477       .  S
C49          C53   1.525       .  S
C49          C55   1.532       .  S
C49          C54   1.529       .  S
C50          C58   1.373       .  A
C50          C53   1.397       .  A
C51          C62   1.375       .  A
C51          C54   1.397       .  A
C52          C66   1.373       .  A
C52          C55   1.396       .  A
C53          C56   1.371       .  A
C54          C60   1.368       .  A
C55          C63   1.374       .  A
C56          N57   1.352       .  A
C56          H69   1.083       .  S
N57          C58   1.355       .  A
N57         C348   1.393       .  S
C58          H59   1.083       .  S
C60          N61   1.357       .  A
C60          H70   1.082       .  S
N61          C62   1.356       .  A
N61         C343   1.427   1_545  S
C62          H68   1.083       .  S
C63          N64   1.356       .  A
C63          H65   1.083       .  S
N64          C66   1.354       .  A
N64         C350   1.397       .  S
C66          H67   1.083       .  S
C71          C72   1.540       .  S
C71          C77   1.537       .  S
C71          C75   1.531       .  S
C71         C334   1.472       .  S
C72          H79   1.086       .  S
C72          C73   1.368       .  D
C73          C74   1.540       .  S
C73         C340   1.450       .  S
C74          C78   1.541       .  S
C74          C76   1.532       .  S
C74          H80   1.112       .  S
C75          H81   1.087       .  S
C75          C76   1.359       .  D
C76         C351   1.434       .  S
C77          H82   1.086       .  S
C77          C78   1.366       .  D
C78         C338   1.449       .  S
C83          C84   1.544       .  S
C83          C89   1.542       .  S
C83          C87   1.535       .  S
C83         C331   1.469       .  S
C84          H91   1.086       .  S
C84          C85   1.367       .  D
C85          C86   1.525       .  S
C85         C364   1.439       .  S
C86          C90   1.526       .  S
C86          C88   1.522       .  S
C86          H92   1.113       .  S
C87          H93   1.087       .  S
C87          C88   1.358       .  D
C88         C349   1.428       .  S
C89          H94   1.086       .  S
C89          C90   1.367       .  D
C90         C333   1.436       .  S
C95         C322   1.471       .  S
C95          C97   1.530       .  S
C95          C99   1.528       .  S
C95          C98   1.528       .  S
C96         C341   1.478       .  S
C96         C100   1.535       .  S
C96         C102   1.535       .  S
C96         C101   1.537       .  S
C97         C105   1.381       .  A
C97         C100   1.408       .  A
C98         C109   1.369       .  A
C98         C101   1.392       .  A
C99         C113   1.379       .  A
C99         C102   1.406       .  A
C100        C103   1.382       .  A
C101        C107   1.378       .  A
C102        C110   1.384       .  A
C103        N104   1.349       .  A
C103        H116   1.083       .  S
N104        C105   1.348       .  A
N104        C327   1.400       .  S
C105        H106   1.083       .  S
C107        N108   1.365       .  A
C107        H117   1.081       .  S
N108        C109   1.356       .  A
N108        C360   1.439       .  S
C109        H115   1.082       .  S
C110        N111   1.350       .  A
C110        H112   1.083       .  S
N111        C113   1.348       .  A
N111        C324   1.400       .  S
C113        H114   1.083       .  S
C118        C119   1.551       .  S
C118        C124   1.537       .  S
C118        C122   1.542       .  S
C118        C314   1.479       .  S
C119        H126   1.086       .  S
C119        C120   1.374       .  D
C120        C121   1.526       .  S
C120        C320   1.450       .  S
C121        C125   1.523       .  S
C121        C123   1.525       .  S
C121        H127   1.113       .  S
C122        H128   1.086       .  S
C122        C123   1.365       .  D
C123        C326   1.436       .  S
C124        H129   1.087       .  S
C124        C125   1.359       .  D
C125        C319   1.431       .  S
C130        C131   1.548       .  S
C130        C136   1.539       .  S
C130        C134   1.542       .  S
C130        C311   1.478       .  S
C131        H138   1.086       .  S
C131        C132   1.371       .  D
C132        C133   1.528       .  S
C132        C346   1.447       .  S
C133        C137   1.526       .  S
C133        C135   1.526       .  S
C133        H139   1.113       .  S
C134        H140   1.086       .  S
C134        C135   1.365       .  D
C135        C325   1.438       .  S
C136        H141   1.087       .  S
C136        C137   1.361       .  D
C137        C313   1.437       .  S
C142        C358   1.484       .  S
C142        C144   1.533       .  S
C142        C146   1.529       .  S
C142        C145   1.535       .  S
C143        C321   1.482       .  S
C143        C147   1.528       .  S
C143        C149   1.527       .  S
C143        C148   1.525       .  S
C144        C152   1.374       .  A
C144        C147   1.410       .  A
C145        C156   1.377       .  A
C145        C148   1.396       .  A
C146        C160   1.373       .  A
C146        C149   1.396       .  A
C147        C150   1.373       .  A
C148        C154   1.366       .  A
C149        C157   1.372       .  A
C150        N151   1.347       .  A
C150        H163   1.083       .  S
N151        C152   1.349       .  A
N151        C306   1.390       .  S
C152        H153   1.083       .  S
C154        N155   1.356       .  A
C154        H164   1.082       .  S
N155        C156   1.358       .  A
N155        C342   1.428       .  S
C156        H162   1.082       .  S
C157        N158   1.354       .  A
C157        H159   1.083       .  S
N158        C160   1.354       .  A
N158        C304   1.394       .  S
C160        H161   1.083       .  S
C165        C166   1.544       .  S
C165        C171   1.546       .  S
C165        C169   1.534       .  S
C165        C301   1.469       .  S
C166        H173   1.086       .  S
C166        C167   1.366       .  D
C167        C168   1.525       .  S
C167        C366   1.438       .  S
C168        C172   1.526       .  S
C168        C170   1.522       .  S
C168        H174   1.113       .  S
C169        H175   1.087       .  S
C169        C170   1.356       .  D
C170        C307   1.424       .  S
C171        H176   1.086       .  S
C171        C172   1.370       .  D
C172        C303   1.442       .  S
C177        C178   1.538       .  S
C177        C183   1.535       .  S
C177        C181   1.531       .  S
C177        C292   1.463       .  S
C178        H185   1.086       .  S
C178        C179   1.367       .  D
C179        C180   1.536       .  S
C179        C323   1.442       .  S
C180        C184   1.535       .  S
C180        C182   1.529       .  S
C180        H186   1.112       .  S
C181        H187   1.087       .  S
C181        C182   1.357       .  D
C182        C305   1.430       .  S
C183        H188   1.087       .  S
C183        C184   1.364       .  D
C184        C296   1.439       .  S
C189        C339   1.477       .  S
C189        C191   1.536       .  S
C189        C193   1.531       .  S
C189        C192   1.536       .  S
C190        C302   1.473       .  S
C190        C194   1.530       .  S
C190        C196   1.529       .  S
C190        C195   1.525       .  S
C191        C199   1.378       .  A
C191        C194   1.409       .  A
C192        C203   1.378       .  A
C192        C195   1.394       .  A
C193        C207   1.376       .  A
C193        C196   1.392       .  A
C194        C197   1.376       .  A
C195        C201   1.368   1_554  A
C196        C204   1.375       .  A
C197        N198   1.348       .  A
C197        H210   1.083       .  S
N198        C199   1.351       .  A
N198        C318   1.396       .  S
C199        H200   1.083       .  S
C201        N202   1.356       .  A
C201        H211   1.083       .  S
N202        C203   1.359   1_556  A
N202        C288   1.431       .  S
C203        H209   1.082   1_554  S
C204        N205   1.355       .  A
C204        H206   1.083       .  S
N205        C207   1.356       .  A
N205        C374   1.400       .  S
C207        H208   1.083       .  S
C212        C297   1.467       .  S
C212        C214   1.534       .  S
C212        C216   1.531       .  S
C212        C215   1.532       .  S
C213        C332   1.466       .  S
C213        C217   1.532       .  S
C213        C219   1.532       .  S
C213        C218   1.525       .  S
C214        C222   1.377       .  A
C214        C217   1.403       .  A
C215        C226   1.377       .  A
C215        C218   1.392       .  A
C216        C230   1.377       .  A
C216        C219   1.391       .  A
C217        C220   1.379       .  A
C218        C224   1.370       .  A
C219        C227   1.376       .  A
C220        N221   1.352       .  A
C220        H233   1.083       .  S
N221        C222   1.352       .  A
N221        C312   1.399       .  S
C222        H223   1.083       .  S
C224        N225   1.357       .  A
C224        H234   1.082       .  S
N225        C226   1.357       .  A
N225        C289   1.429       .  S
C226        H232   1.082       .  S
C227        N228   1.356       .  A
C227        H229   1.083       .  S
N228        C230   1.357       .  A
N228        C357   1.402       .  S
C230        H231   1.083       .  S
C235        N253   1.344   1_554  A
C235        C272   1.466   1_554  S
C235        C298   1.437       .  S
N236        N253   1.321       .  A
N236        N258   1.318       .  A
N236       Co273   2.062   1_455  S
C237        N262   1.337   1_455  A
C237        H282   1.082   1_455  S
C237        C275   1.452       .  S
H238        C279   1.081   1_654  S
C239        N263   1.347       .  A
C239        H268   1.082   1_545  S
C239        C243   1.465   1_556  S
Co240       N258   2.099       .  S
Co240       N248   2.086   1_565  S
Co240       N280   2.086       .  S
Co240       N256   2.096   1_565  S
Co240      Cl284   2.467   1_455  S
N241        C279   1.344   1_655  A
N241        N248   1.323   1_655  A
N241       Co242   2.105       .  S
Co242       N245   2.068       .  S
Co242       N262   2.067       .  S
Co242       N249   2.111       .  S
Co242      Cl284   2.440   1_545  S
C243        N281   1.344   1_554  A
C243        C337   1.440       .  S
N244        N251   1.323       .  A
N244        N274   1.325       .  A
N244       Co277   2.082       .  S
N245        N263   1.319       .  A
N245        N281   1.322       .  A
N246        C275   1.353       .  A
N246        N256   1.327       .  A
H247        C272   1.082       .  S
N248        N269   1.326       .  A
N249        N267   1.322   1_545  A
N249        N254   1.329       .  A
C250        N254   1.354       .  A
C250        C278   1.453   1_545  S
C250        C308   1.446       .  S
N251        C266   1.348       .  A
N251       Co273   2.115       .  S
C252        N280   1.342       .  A
C252        H286   1.082       .  S
C252        C255   1.456       .  S
C255        N276   1.353       .  A
C255        C355   1.448       .  S
N256        N262   1.318   1_455  A
N257        C283   1.335       .  A
N257        N259   1.318       .  A
N257       Co273   2.058       .  S
N258        C272   1.345       .  A
N259        N287   1.327       .  A
N259       Co277   2.095       .  S
H260        C283   1.082       .  S
H261        C278   1.082       .  S
N263       Co277   2.099   1_545  S
N264        N276   1.329       .  A
N264        N280   1.323       .  A
N264       Co273   2.114   1_455  S
C265        N269   1.348   1_554  A
C265        C279   1.458   1_554  S
C265        C370   1.442       .  S
C266        H270   1.082   1_556  S
C266        C285   1.465   1_556  S
N267        C278   1.340       .  A
N267       Co277   2.081       .  S
C271        N287   1.353       .  A
C271        C283   1.448       .  S
C271        C295   1.432       .  S
Co273      Cl284   2.439       .  S
N274        C285   1.346   1_556  A
C275        C328   1.438       .  S
Co277      Cl284   2.466       .  S
C285        C317   1.447       .  S
C288        H290   1.086       .  S
C288        C289   1.339       .  D
C289        H291   1.086       .  S
C292        C293   1.204       .  T
C293        C294   1.408       .  S
C294        C295   1.204       .  T
C296        C297   1.205       .  T
C298        C299   1.207       .  T
C299        C300   1.414       .  S
C300        C301   1.207       .  T
C302        C303   1.207       .  T
C304        C305   1.199       .  T
C306        C307   1.196       .  T
C308        C309   1.212       .  T
C309        C310   1.422       .  S
C310        C311   1.212       .  T
C312        C313   1.203       .  T
C314        C315   1.213       .  T
C315        C316   1.423       .  S
C316        C317   1.213       .  T
C318        C319   1.200       .  T
C320        C321   1.212       .  T
C322        C323   1.206       .  T
C324        C325   1.204       .  T
C326        C327   1.204       .  T
C328        C329   1.207       .  T
C329        C330   1.414       .  S
C330        C331   1.207       .  T
C332        C333   1.203       .  T
C334        C335   1.209       .  T
C335        C336   1.416       .  S
C336        C337   1.208       .  T
C338        C339   1.211       .  T
C340        C341   1.211       .  T
C342        H344   1.087       .  S
C342        C343   1.338       .  D
C343        H345   1.087       .  S
C346        C347   1.210       .  T
C348        C349   1.198       .  T
C350        C351   1.202       .  T
C352        C353   1.213       .  T
C353        C354   1.424       .  S
C354        C355   1.213       .  T
C356        C357   1.206       .  T
C358        C359   1.214       .  T
C360        H362   1.084       .  S
C360        C361   1.342       .  D
C361        H363   1.084       .  S
C364        C365   1.205       .  T
C366        C367   1.205       .  T
C368        C369   1.213       .  T
C370        C371   1.209       .  T
C371        C372   1.417       .  S
C372        C373   1.209       .  T
C374        C375   1.204       .  T
C376        C377   1.210       .  T
C378        C379   1.209       .  T
