geometry optimzed in LAMMPS
_audit_creation_date              2020-12-01 
_audit_creation_method            'lammps2cif' 
_symmetry_space_group_name_H-M    'P1' 
_symmetry_Int_Tables_number       1 
_symmetry_cell_setting            triclinic 
loop_ 
_symmetry_equiv_pos_as_xyz 
  x,y,z 
_cell_length_a                    22.60062819 
_cell_length_b                    22.92810510669229 
_cell_length_c                    24.533458242250536 
_cell_angle_alpha                 91.54884932717161 
_cell_angle_beta                  91.05210428360142 
_cell_angle_gamma                 89.02777636949949 
loop_ 
_atom_site_label 
_atom_site_type_symbol 
_atom_site_fract_x 
_atom_site_fract_y 
_atom_site_fract_z 
_atom_site_charge 
N1          N  0.44045515  0.61763118  0.43844298    -0.04800
N2          N  0.43492042  0.65844642  0.40197941    -0.56900
N3          N  0.39585113  0.58662718  0.56298736    -0.04400
N4          N  0.35821053  0.60384788  0.60109242    -0.59000
N5          N  0.44075944  0.62242240  0.56223422    -0.04000
N6          N  0.43437365  0.66488050  0.59903742    -0.56900
N7          N  0.39507060  0.58235355  0.43616661    -0.03700
N8          N  0.35748368  0.59901964  0.39699993    -0.59400
C9          C  0.38370300  0.64630351  0.37584483     0.97400
C10         C  0.38322870  0.65249882  0.62332505     0.97200
N11         N  0.42322897  0.40505352  0.56750802    -0.05000
N12         N  0.40915935  0.36721380  0.60462981    -0.57500
N13         N  0.38330146  0.44183368  0.44009528    -0.03100
N14         N  0.34151927  0.43083429  0.40296053    -0.58700
N15         N  0.42173433  0.39800744  0.44195553    -0.05000
N16         N  0.40725435  0.35688783  0.40552529    -0.57700
N17         N  0.38341988  0.44767909  0.56538097    -0.02700
N18         N  0.34127198  0.43907218  0.60109773    -0.58800
Mn19       Mn  0.38735639  0.51486254  0.50091657     1.18400
C20         C  0.35818359  0.38893575  0.62566553     0.99500
C21         C  0.35736265  0.37808353  0.38126510     1.00200
N22         N  0.57966498  0.60960621  0.56336127    -0.05000
N23         N  0.59284228  0.64983019  0.60084992    -0.61300
N24         N  0.61533689  0.55959981  0.43814217    -0.03800
N25         N  0.65362610  0.56457526  0.39861668    -0.62000
N26         N  0.57690947  0.60324787  0.43794536    -0.04500
N27         N  0.58763099  0.63852050  0.39788443    -0.61600
N28         N  0.61941764  0.56704955  0.56337598    -0.03400
N29         N  0.66095019  0.57784870  0.60089365    -0.62300
Mn30       Mn  0.50953949  0.61415148  0.50076857     1.10700
C31         C  0.64338202  0.62940476  0.62420822     1.00700
C32         C  0.63524514  0.61357549  0.37353050     1.00800
N33         N  0.56067968  0.38574840  0.44300444    -0.04500
N34         N  0.56628889  0.34334067  0.40599437    -0.59900
N35         N  0.60906880  0.43004046  0.56575351    -0.03800
N36         N  0.65024737  0.41853456  0.60281624    -0.56600
N37         N  0.56490471  0.39357618  0.56867729    -0.05100
N38         N  0.57542810  0.35640623  0.60830141    -0.59500
N39         N  0.60472798  0.42233341  0.44040367    -0.04100
N40         N  0.64117587  0.40547975  0.40113523    -0.56600
Mn41       Mn  0.49260047  0.39422523  0.50569187     1.20200
Mn42       Mn  0.61383768  0.49451996  0.50177275     1.10100
Cl43       Cl  0.50065595  0.50431954  0.50242276    -0.84600
C44         C  0.61620219  0.35631591  0.37988128     0.97700
C45         C  0.62871428  0.37301570  0.62937630     0.97500
C46         C  0.68721165  0.74551966  0.73463767     0.87800
C47         C  0.72594807  0.71328902  0.77688451    -0.52400
C48         C  0.75568245  0.75028295  0.81202316     0.10800
C49         C  0.74351429  0.81506669  0.80216793     0.21700
C50         C  0.64638765  0.78604271  0.76897133    -0.53100
C51         C  0.67626654  0.82212152  0.80453945     0.10900
C52         C  0.72982623  0.78668563  0.70671019    -0.52700
C53         C  0.75932404  0.82320005  0.74247798     0.11400
H54         H  0.72916789  0.66610265  0.77889588     0.16000
H55         H  0.76769136  0.84468694  0.83113136     0.01700
H56         H  0.59842346  0.78614729  0.76540606     0.16300
H57         H  0.73537855  0.78717432  0.66287195     0.16000
C58         C  0.68080458  0.27080549  0.74487434     0.87800
C59         C  0.64625288  0.23220316  0.78311569    -0.52400
C60         C  0.68144860  0.20196839  0.81888716     0.10800
C61         C  0.74792553  0.21253387  0.81205620     0.21700
C62         C  0.71875873  0.30983958  0.78352204    -0.53100
C63         C  0.75506885  0.27906164  0.81790019     0.10900
C64         C  0.72559675  0.22916005  0.71647268    -0.52700
C65         C  0.76078351  0.19875295  0.75195985     0.11400
H66         H  0.59833943  0.23035426  0.78229304     0.16000
H67         H  0.77618286  0.18712009  0.84066882     0.01700
H68         H  0.71863534  0.35714767  0.78223986     0.16300
H69         H  0.72872604  0.22397515  0.67247774     0.16000
C70         C  0.28553625  0.71863964  0.73756348     0.87800
C71         C  0.32967480  0.75369844  0.77384857    -0.52400
C72         C  0.30278035  0.79377173  0.80784390     0.10800
C73         C  0.23515655  0.79408671  0.80332663     0.21700
C74         C  0.24341620  0.69106528  0.77784686    -0.53100
C75         C  0.21722968  0.73099503  0.81257278     0.10900
C76         C  0.24720675  0.76482210  0.70831779    -0.52700
C77         C  0.22068553  0.80425507  0.74314122     0.11400
H78         H  0.37736746  0.74831898  0.77146157     0.16000
H79         H  0.21330338  0.82632679  0.83137409     0.01700
H80         H  0.23585811  0.64450488  0.77916208     0.16300
H81         H  0.24189994  0.76606864  0.66428674     0.16000
C82         C  0.31036509  0.27535517  0.73260935     0.87800
C83         C  0.27342811  0.30964447  0.77515714    -0.52400
C84         C  0.24441296  0.27474075  0.80986524     0.10800
C85         C  0.25716628  0.20903201  0.80050889     0.21700
C86         C  0.35252947  0.23695386  0.76699888    -0.53100
C87         C  0.32515251  0.20231012  0.80274303     0.10900
C88         C  0.26651945  0.23209351  0.70483898    -0.52700
C89         C  0.23892824  0.19706458  0.74079954     0.11400
H90         H  0.26897549  0.35689108  0.77654120     0.16000
H91         H  0.23405041  0.18145310  0.82947255     0.01700
H92         H  0.40041067  0.23786093  0.76400704     0.16300
H93         H  0.25905154  0.22887280  0.66103680     0.16000
N94         N  0.99267248  0.91644526  0.66799765    -0.35300
N95         N  0.90448221  0.01032797  0.67590946    -0.55800
N96         N  0.99773544  0.09814992  0.67340941    -0.35300
N97         N  0.08651393  0.00427174  0.67581214    -0.55800
C98         C  0.94396938  0.88542003  0.67890991     0.28300
C99         C  0.04049529  0.88187291  0.67817225     0.28300
C100        C  0.95023256  0.13191008  0.68745740     0.28300
C101        C  0.04709341  0.12869844  0.68679319     0.28300
C102        C  0.86800110  0.96459487  0.66805928     0.36900
C103        C  0.87061299  0.05895249  0.67015622     0.36900
C104        C  0.11984175  0.95543844  0.66715366     0.36900
C105        C  0.12287308  0.05005069  0.67038735     0.36900
C106        C  0.96106625  0.82994151  0.69481143    -0.20500
C107        C  0.02186223  0.82766456  0.69429018    -0.20500
C108        C  0.96967938  0.18492412  0.70891192    -0.20500
C109        C  0.03059631  0.18291294  0.70845315    -0.20500
C110        C  0.81078661  0.98422475  0.65722939    -0.21600
C111        C  0.81247618  0.04396405  0.65825103    -0.21600
C112        C  0.17756375  0.97027075  0.65625000    -0.21600
C113        C  0.17946403  0.03009994  0.65820133    -0.21600
C114        C  0.88448952  0.90548868  0.67497947    -0.16900
C115        C  0.10052282  0.89757739  0.67347405    -0.16900
C116        C  0.10666750  0.10943529  0.67995956    -0.16900
C117        C  0.88979204  0.11649704  0.68152001    -0.16900
H118        H  0.93278249  0.79487440  0.70638061     0.16000
H119        H  0.04917571  0.79044919  0.70539001     0.16000
H120        H  0.94278482  0.22111832  0.72402788     0.16000
H121        H  0.05950468  0.21719734  0.72325783     0.16000
H122        H  0.77172521  0.95822713  0.65012641     0.14200
H123        H  0.77485704  0.07306909  0.65219568     0.14200
H124        H  0.21465393  0.94096312  0.64832582     0.14200
H125        H  0.21830102  0.05587703  0.65193549     0.14200
H126        H  0.99341747  0.95837999  0.65326112     0.27500
H127        H  0.99641153  0.05724779  0.65427745     0.27500
C128        C  0.68333527  0.72330898  0.26914435     0.87800
C129        C  0.64851697  0.76910299  0.23656825    -0.52400
C130        C  0.68374581  0.80481753  0.20806610     0.10800
C131        C  0.75031553  0.79151802  0.21538346     0.21700
C132        C  0.72197946  0.69076120  0.22690324    -0.53100
C133        C  0.75770117  0.72627754  0.19870518     0.10900
C134        C  0.72651958  0.75851676  0.30546773    -0.52700
C135        C  0.76196528  0.79415192  0.27761342     0.11400
H136        H  0.60059565  0.77296349  0.23661668     0.16000
H137        H  0.77692760  0.82190248  0.19225003     0.01700
H138        H  0.72139996  0.64374119  0.22023847     0.16300
H139        H  0.72865765  0.75555755  0.34960472     0.16000
C140        C  0.29421134  0.71873927  0.25829694     0.87800
C141        C  0.25317356  0.69398830  0.21291997    -0.52400
C142        C  0.22807951  0.73595080  0.18091753     0.10800
C143        C  0.24614772  0.79818193  0.19720777     0.21700
C144        C  0.33969395  0.75569259  0.22817333    -0.53100
C145        C  0.31389837  0.79779420  0.19645623     0.10900
C146        C  0.25522894  0.76347685  0.28959897    -0.52700
C147        C  0.23001064  0.80499318  0.25732723     0.11400
H148        H  0.24466142  0.64778291  0.20685311     0.16000
H149        H  0.22500279  0.83188639  0.17116664     0.01700
H150        H  0.38727164  0.74993780  0.23276583     0.16300
H151        H  0.24829910  0.76197825  0.33320228     0.16000
N152        N  0.07837763  0.67686931  0.99493691    -0.35300
N153        N  0.98576946  0.66676568  0.91062308    -0.55800
N154        N  0.89693285  0.69045451  0.99493978    -0.35300
N155        N  0.98878677  0.68964062  0.07933646    -0.55800
C156        C  0.11093316  0.66119060  0.95109343     0.32500
C157        C  0.11227165  0.66747113  0.03994952     0.28300
C158        C  0.86139760  0.67706684  0.95171139     0.28300
C159        C  0.86303509  0.69288974  0.03987939     0.28300
C160        C  0.03325600  0.67144432  0.87829146     0.36900
C161        C  0.93730655  0.67501275  0.87839185     0.36900
C162        C  0.03812948  0.69553691  0.11088629     0.36900
C163        C  0.94295064  0.70924741  0.10983031     0.36900
C164        C  0.16651551  0.64203820  0.96830060    -0.20500
C165        C  0.16725607  0.64563949  0.02438789    -0.20500
C166        C  0.80400141  0.67042690  0.96946823    -0.20500
C167        C  0.80487494  0.68117030  0.02490972    -0.20500
C168        C  0.01486465  0.68147591  0.82510805    -0.21600
C169        C  0.95416903  0.68359980  0.82512686    -0.21600
C170        C  0.02335390  0.71751329  0.16214166    -0.21600
C171        C  0.96317815  0.72632142  0.16131567    -0.21600
C172        C  0.09305225  0.66680282  0.89589580    -0.16900
C173        C  0.09640447  0.68124314  0.09446722    -0.16900
C174        C  0.88270502  0.70975288  0.09303766    -0.16900
C175        C  0.87800942  0.67618009  0.89619902    -0.16900
H176        H  0.20280302  0.62713560  0.94302391     0.16000
H177        H  0.20438708  0.63415196  0.05067847     0.16000
H178        H  0.76508068  0.66051244  0.94479568     0.16000
H179        H  0.76665838  0.68103690  0.05075993     0.16000
H180        H  0.04224010  0.68745635  0.79001309     0.14200
H181        H  0.92584901  0.69185627  0.79002855     0.14200
H182        H  0.05284987  0.72671614  0.19642120     0.14200
H183        H  0.93697427  0.74265477  0.19490152     0.14200
H184        H  0.03679558  0.69652272  0.99383856     0.27500
H185        H  0.94092745  0.70194989  0.99319010     0.27500
C186        C  0.30307736  0.25994316  0.27610407     0.87800
C187        C  0.34008200  0.21667687  0.24090223    -0.52400
C188        C  0.30674749  0.17952449  0.20915732     0.10800
C189        C  0.24013129  0.18858662  0.21595046     0.21700
C190        C  0.26138263  0.29093894  0.23485560    -0.53100
C191        C  0.22779701  0.25292228  0.20368040     0.10900
C192        C  0.26219574  0.22124202  0.30894492    -0.52700
C193        C  0.22953880  0.18364568  0.27693585     0.11400
H194        H  0.38811322  0.21562910  0.24145486     0.16000
H195        H  0.21324799  0.15785188  0.19035536     0.01700
H196        H  0.25858532  0.33797067  0.23140634     0.16300
H197        H  0.26059847  0.22246975  0.35316686     0.16000
N198        N  0.90960859  0.99957390  0.33256973    -0.35300
N199        N  0.99994409  0.90854319  0.32602159    -0.55800
N200        N  0.09053366  0.99809986  0.33783412    -0.35300
N201        N  0.00028415  0.08905957  0.35369329    -0.55800
C202        C  0.87452953  0.95257756  0.32569561     0.28300
C203        C  0.87450554  0.04637864  0.34384482     0.28300
C204        C  0.12386254  0.94927699  0.34474990     0.28300
C205        C  0.12401547  0.04399439  0.35371279     0.28300
C206        C  0.95318637  0.87651608  0.30896162     0.36900
C207        C  0.04859351  0.87452065  0.31848858     0.36900
C208        C  0.95198991  0.12400329  0.34748287     0.36900
C209        C  0.04791896  0.12317623  0.34772260     0.36900
C210        C  0.81603852  0.96984809  0.33319457    -0.20500
C211        C  0.81613223  0.02868637  0.34542586    -0.20500
C212        C  0.17932574  0.96441161  0.36514028    -0.20500
C213        C  0.17947650  0.02428071  0.37059552    -0.20500
C214        C  0.97213820  0.82114502  0.29248702    -0.21600
C215        C  0.03256819  0.81990827  0.29820883    -0.21600
C216        C  0.96925407  0.18086747  0.33907813    -0.21600
C217        C  0.02992135  0.18024993  0.33897980    -0.21600
C218        C  0.89347593  0.89592786  0.30826039    -0.16900
C219        C  0.89245282  0.10545756  0.34645659    -0.16900
C220        C  0.10744409  0.10339223  0.34931376    -0.16900
C221        C  0.10734759  0.89181800  0.32951402    -0.16900
H222        H  0.77688780  0.94355528  0.32914559     0.16000
H223        H  0.77719350  0.05581706  0.35236714     0.16000
H224        H  0.21616920  0.93532955  0.37435028     0.16000
H225        H  0.21633557  0.05045042  0.38487045     0.16000
H226        H  0.94505272  0.78503845  0.27892839     0.14200
H227        H  0.06133267  0.78299875  0.28854910     0.14200
H228        H  0.94115555  0.21869637  0.33196608     0.14200
H229        H  0.05745255  0.21743651  0.33220389     0.14200
H230        H  0.95442914  0.00078110  0.32549123     0.27500
H231        H  0.04905961  0.00047811  0.31921041     0.27500
N232        N  0.42384475  0.89345553  0.00317197    -0.35300
N233        N  0.39831385  0.98285903  0.92160018    -0.55800
N234        N  0.39562149  0.07470874  0.00557790    -0.35300
N235        N  0.41299660  0.98498066  0.08787928    -0.55800
C236        C  0.41182573  0.85953020  0.95836147     0.28300
C237        C  0.41507444  0.86046422  0.04736374     0.28300
C238        C  0.37022098  0.10351173  0.96331888     0.28300
C239        C  0.38349588  0.10597847  0.05171829     0.28300
C240        C  0.40977194  0.93663341  0.88793117     0.36900
C241        C  0.39055634  0.02955296  0.88951421     0.36900
C242        C  0.42385288  0.93863055  0.11977215     0.36900
C243        C  0.41593021  0.03305199  0.12091665     0.36900
C244        C  0.39839676  0.80374140  0.97426222    -0.20500
C245        C  0.40028369  0.80437800  0.03019313    -0.20500
C246        C  0.34359839  0.15468644  0.98273524    -0.20500
C247        C  0.35228834  0.15647125  0.03832506    -0.20500
C248        C  0.40999823  0.95427040  0.83428407    -0.21600
C249        C  0.39751240  0.01305182  0.83528500    -0.21600
C250        C  0.43385428  0.95727911  0.17324001    -0.21600
C251        C  0.42927782  0.01708157  0.17393579    -0.21600
C252        C  0.40952028  0.87765860  0.90352938    -0.16900
C253        C  0.41739807  0.87959382  0.10283167    -0.16900
C254        C  0.39863093  0.09008557  0.10577188    -0.16900
C255        C  0.36991395  0.08502540  0.90771922    -0.16900
H256        H  0.38645377  0.76668209  0.94834675     0.16000
H257        H  0.39021840  0.76787095  0.05530043     0.16000
H258        H  0.31988379  0.18726239  0.95938292     0.16000
H259        H  0.33612348  0.19061726  0.06580243     0.16000
H260        H  0.41597249  0.92701787  0.79802208     0.14200
H261        H  0.39240799  0.04023509  0.80006030     0.14200
H262        H  0.44217214  0.93041147  0.20825833     0.14200
H263        H  0.43296588  0.04542869  0.20979464     0.14200
H264        H  0.43651860  0.93670382  0.00330394     0.27500
H265        H  0.42039196  0.03627817  0.00338836     0.27500
N266        N  0.91610542  0.32589368  0.00428242    -0.35300
N267        N  0.01215557  0.33467527  0.08705246    -0.55800
N268        N  0.10032840  0.31623314  0.00259472    -0.35300
N269        N  0.00432079  0.30029956  0.92128841    -0.55800
C270        C  0.88468611  0.32301151  0.05062134     0.28300
C271        C  0.88049540  0.30746392  0.96232137     0.28300
C272        C  0.13501516  0.31071197  0.04792657     0.28300
C273        C  0.13090801  0.29313737  0.95995519     0.28300
C274        C  0.96533491  0.34617602  0.11946183     0.36900
C275        C  0.06154286  0.34281052  0.11825493     0.36900
C276        C  0.95540631  0.30211194  0.88869510     0.36900
C277        C  0.05120778  0.29648942  0.88783435     0.36900
C278        C  0.82770423  0.30493117  0.03734680    -0.20500
C279        C  0.82535166  0.29448381  0.98212964    -0.20500
C280        C  0.18890180  0.28535706  0.03338071    -0.20500
C281        C  0.18607283  0.27381778  0.97823667    -0.20500
C282        C  0.98515886  0.36164426  0.17162724    -0.21600
C283        C  0.04595414  0.35965271  0.17082788    -0.21600
C284        C  0.97136282  0.29950423  0.83438074    -0.21600
C285        C  0.03194124  0.29595048  0.83383580    -0.21600
C286        C  0.90533477  0.33614383  0.10468295    -0.16900
C287        C  0.89639767  0.30070027  0.90676792    -0.16900
C288        C  0.11093751  0.28906675  0.90484918    -0.16900
C289        C  0.11992705  0.32805052  0.10208566    -0.16900
H290        H  0.79116209  0.29905402  0.06438290     0.16000
H291        H  0.78724854  0.27812006  0.95962820     0.16000
H292        H  0.22653181  0.27547099  0.05961224     0.16000
H293        H  0.22074724  0.25291772  0.95453376     0.16000
H294        H  0.95861768  0.37145849  0.20709035     0.14200
H295        H  0.07525570  0.36750505  0.20555254     0.14200
H296        H  0.94228743  0.29948829  0.79883298     0.14200
H297        H  0.05874916  0.29274827  0.79776112     0.14200
H298        H  0.95912541  0.34030108  0.00145729     0.27500
H299        H  0.05880810  0.33605516  0.00048198     0.27500
C300        C  0.71714060  0.28617278  0.26963178     0.87800
C301        C  0.76367821  0.31155089  0.23203098    -0.52400
C302        C  0.79200729  0.27006281  0.20036406     0.10800
C303        C  0.77063353  0.20797119  0.20894672     0.21700
C304        C  0.67501575  0.25135359  0.23103444    -0.53100
C305        C  0.70349245  0.20997374  0.19947344     0.10900
C306        C  0.75139083  0.23973491  0.30222762    -0.52700
C307        C  0.77933840  0.19884466  0.26998961     0.11400
H308        H  0.77333929  0.35768702  0.23131390     0.16000
H309        H  0.79365713  0.17435731  0.18317160     0.01700
H310        H  0.62752595  0.25905484  0.22897504     0.16300
H311        H  0.75317897  0.23951797  0.34647500     0.16000
N312        N  0.58472248  0.09590543  0.01414123    -0.35300
N313        N  0.58808877  0.00609349  0.09686183    -0.55800
N314        N  0.57483946  0.91450491  0.01121210    -0.35300
N315        N  0.57729309  0.00510579  0.92882757    -0.55800
C316        C  0.59694576  0.12964454  0.05896647     0.28300
C317        C  0.59311708  0.12860671  0.96976538     0.28300
C318        C  0.58987925  0.88152834  0.05450295     0.28300
C319        C  0.58391252  0.88116405  0.96553283     0.28300
C320        C  0.58934900  0.05376965  0.13060806     0.36900
C321        C  0.58699654  0.95902233  0.12883441     0.36900
C322        C  0.57407071  0.05222343  0.89691245     0.36900
C323        C  0.56886694  0.95797524  0.89564981     0.36900
C324        C  0.61033557  0.18538544  0.04276561    -0.20500
C325        C  0.60822892  0.18461982  0.98675479    -0.20500
C326        C  0.60601000  0.82582215  0.03608351    -0.20500
C327        C  0.60238588  0.82564362  0.98016493    -0.20500
C328        C  0.58877287  0.03674039  0.18441361    -0.21600
C329        C  0.58720160  0.97688180  0.18328612    -0.21600
C330        C  0.56302479  0.03489245  0.84317559    -0.21600
C331        C  0.55953230  0.97525862  0.84241552    -0.21600
C332        C  0.59774283  0.11185626  0.11412686    -0.16900
C333        C  0.58775331  0.10978803  0.91425364    -0.16900
C334        C  0.57843133  0.89950660  0.91086452    -0.16900
C335        C  0.59162112  0.90010816  0.11016616    -0.16900
H336        H  0.62108194  0.22292017  0.06851128     0.16000
H337        H  0.61696939  0.22134818  0.96148520     0.16000
H338        H  0.62068799  0.78935650  0.06028671     0.16000
H339        H  0.61359144  0.78899989  0.95335884     0.16000
H340        H  0.59092494  0.06443850  0.22079555     0.14200
H341        H  0.58771921  0.94957798  0.21860841     0.14200
H342        H  0.55960064  0.06217075  0.80790536     0.14200
H343        H  0.55305891  0.94753396  0.80645611     0.14200
H344        H  0.57163395  0.05301184  0.01395376     0.27500
H345        H  0.55934603  0.95730563  0.01277232     0.27500
C346        C  0.67560725  0.16994796  0.15838492    -0.15100
C347        C  0.61828736  0.15499420  0.15674476    -0.30300
H348        H  0.70499741  0.14959352  0.12858655     0.13900
H349        H  0.58795295  0.17076838  0.18782254     0.14500
C350        C  0.86206094  0.33225357  0.14956791    -0.15100
C351        C  0.83979098  0.28010645  0.16118670    -0.30300
H352        H  0.84896005  0.37170054  0.17187667     0.13900
H353        H  0.85619396  0.24187633  0.13862012     0.14500
C354        C  0.84612747  0.15085034  0.33723229    -0.15100
C355        C  0.81671456  0.15026303  0.28928733    -0.30300
H356        H  0.84311902  0.18829280  0.36515473     0.13900
H357        H  0.82536853  0.11480118  0.26003223     0.14500
C358        C  0.18227509  0.26780001  0.16155614    -0.15100
C359        C  0.16618372  0.32161354  0.14597283    -0.30300
H360        H  0.16047813  0.23105128  0.14129499     0.13900
H361        H  0.18479687  0.36025536  0.16562989     0.14500
C362        C  0.32966329  0.13404297  0.17069009    -0.15100
C363        C  0.38437248  0.13296259  0.15023015    -0.30300
H364        H  0.29819266  0.10205133  0.15510665     0.13900
H365        H  0.41663306  0.16563523  0.16206864     0.14500
C366        C  0.18878789  0.13929758  0.29632866    -0.15100
C367        C  0.15491222  0.14623080  0.34046307    -0.30300
H368        H  0.18175414  0.10148694  0.26941841     0.13900
H369        H  0.15658005  0.18628705  0.36505873     0.14500
C370        C  0.14416489  0.68366478  0.13687430    -0.15100
C371        C  0.18545167  0.72493366  0.13557125    -0.30300
H372        H  0.14099590  0.65640426  0.17220209     0.13900
H373        H  0.18389480  0.75579763  0.10269977     0.14500
C374        C  0.34449074  0.84227718  0.16466704    -0.15100
C375        C  0.39940723  0.83723216  0.14459984    -0.30300
H376        H  0.31741975  0.87953596  0.15247699     0.13900
H377        H  0.42629864  0.79837367  0.15155946     0.14500
C378        C  0.15502774  0.84783856  0.32007370    -0.15100
C379        C  0.18879274  0.85173360  0.27598184    -0.30300
H380        H  0.15666702  0.80918862  0.34467274     0.13900
H381        H  0.18184792  0.88852281  0.24941756     0.14500
C382        C  0.79880842  0.70214273  0.15666158    -0.15100
C383        C  0.83901730  0.73461582  0.13230206    -0.30300
H384        H  0.79698925  0.65579924  0.14632312     0.13900
H385        H  0.84460411  0.77999962  0.14415138     0.14500
C386        C  0.60700438  0.85517540  0.15091982    -0.15100
C387        C  0.66197525  0.85244274  0.17277416    -0.30300
H388        H  0.57547315  0.82104036  0.15758112     0.13900
H389        H  0.69385361  0.88470868  0.16135904     0.14500
C390        C  0.80561811  0.83216781  0.30642501    -0.15100
C391        C  0.84985537  0.85702711  0.28042147    -0.30300
H392        H  0.80177314  0.83942802  0.35020381     0.13900
H393        H  0.85757104  0.84629611  0.23782444     0.14500
C394        C  0.15441596  0.15397591  0.68649200    -0.15100
C395        C  0.19587401  0.15032073  0.72643801    -0.30300
H396        H  0.15113092  0.19310779  0.66257163     0.13900
H397        H  0.19448837  0.11381302  0.75370111     0.14500
C398        C  0.33581336  0.12086752  0.86775956    -0.15100
C399        C  0.35970731  0.16508148  0.84139851    -0.30300
H400        H  0.29018723  0.10898012  0.85991301     0.13900
H401        H  0.40643819  0.17388281  0.84798692     0.14500
C402        C  0.20231285  0.29793765  0.85097747    -0.15100
C403        C  0.15355816  0.26834197  0.86280132    -0.30300
H404        H  0.21028024  0.34024028  0.87050192     0.13900
H405        H  0.14267447  0.22884140  0.83953444     0.14500
C406        C  0.17555190  0.71745319  0.85611879    -0.15100
C407        C  0.13977528  0.67126883  0.85437118    -0.30300
H408        H  0.17052359  0.74981885  0.88898404     0.13900
H409        H  0.13975947  0.64110544  0.81948535     0.14500
C410        C  0.18083395  0.85275439  0.72680328    -0.15100
C411        C  0.14620640  0.85108099  0.68176938    -0.30300
H412        H  0.17579386  0.88922021  0.75568431     0.13900
H413        H  0.14591707  0.81259749  0.65497903     0.14500
C414        C  0.33265733  0.83661043  0.84461043    -0.15100
C415        C  0.38955458  0.83403624  0.86137388    -0.30300
H416        H  0.30473177  0.87169870  0.86106918     0.13900
H417        H  0.41847412  0.79777788  0.84958809     0.14500
C418        C  0.66020940  0.16378627  0.86246142    -0.15100
C419        C  0.60311488  0.15131699  0.87111888    -0.30300
H420        H  0.69385117  0.14453589  0.88896270     0.13900
H421        H  0.56795326  0.16744963  0.84463909     0.14500
C422        C  0.80704478  0.15552725  0.73591595    -0.15100
C423        C  0.84345273  0.16189599  0.69375665    -0.30300
H424        H  0.81367362  0.11833167  0.76199815     0.13900
H425        H  0.84161487  0.20144698  0.67034381     0.14500
C426        C  0.85124613  0.27910061  0.86630691    -0.15100
C427        C  0.79960057  0.30672969  0.85514563    -0.30300
H428        H  0.86229024  0.23885707  0.84410307     0.13900
H429        H  0.79033207  0.34966374  0.87309695     0.14500
C430        C  0.64885620  0.86473932  0.84294290    -0.15100
C431        C  0.59664942  0.85725597  0.86699160    -0.30300
H432        H  0.67555879  0.90183760  0.85576657     0.13900
H433        H  0.57138008  0.81793285  0.85927216     0.14500
C434        C  0.79638179  0.73253737  0.85636172    -0.15100
C435        C  0.83046030  0.68410336  0.85425703    -0.30300
H436        H  0.80309538  0.76396544  0.88979163     0.13900
H437        H  0.82896431  0.65497456  0.81861978     0.14500
C438        C  0.80285038  0.86739214  0.72755833    -0.15100
C439        C  0.83690110  0.86261419  0.68329707    -0.30300
H440        H  0.81035271  0.90330766  0.75656616     0.13900
H441        H  0.83440037  0.82429332  0.65643321     0.14500
C442        C  0.67797259  0.66255148  0.66590686    -0.15100
C443        C  0.65289843  0.70658834  0.69509940    -0.30300
H444        H  0.72443186  0.65137343  0.67219915     0.13900
H445        H  0.60575243  0.71541214  0.68979979     0.14500
C446        C  0.66399538  0.34207527  0.67112531    -0.15100
C447        C  0.64137575  0.30367861  0.70503935    -0.30300
H448        H  0.71091814  0.35150318  0.67411352     0.13900
H449        H  0.59415538  0.29542276  0.70352563     0.14500
C450        C  0.31431744  0.67520176  0.69843903    -0.15100
C451        C  0.35579957  0.69207648  0.66407045    -0.30300
H452        H  0.30086384  0.62991010  0.69799020     0.13900
H453        H  0.37085140  0.73685782  0.66624713     0.14500
C454        C  0.66867447  0.64133396  0.33097834    -0.15100
C455        C  0.64503074  0.68498833  0.30201028    -0.30300
H456        H  0.71493462  0.62887785  0.32629945     0.13900
H457        H  0.59825948  0.69603934  0.30555188     0.14500
C458        C  0.34469805  0.31231789  0.69349338    -0.15100
C459        C  0.32191550  0.35760673  0.66544600    -0.30300
H460        H  0.39127943  0.30134643  0.68835658     0.13900
H461        H  0.27622634  0.37137676  0.67129294     0.14500
C462        C  0.35751385  0.68733811  0.33637580    -0.15100
C463        C  0.32043865  0.67246428  0.29527049    -0.30300
H464        H  0.37148259  0.73241972  0.34036960     0.13900
H465        H  0.30803027  0.62715590  0.28917937     0.14500
C466        C  0.68681786  0.33133929  0.30615868    -0.15100
C467        C  0.64319538  0.31620054  0.33910170    -0.30300
H468        H  0.70186054  0.37612020  0.30683692     0.13900
H469        H  0.62713215  0.27177950  0.33683481     0.14500
C470        C  0.34170594  0.29938077  0.31189787    -0.15100
C471        C  0.31995626  0.34450434  0.34184233    -0.30300
H472        H  0.38889639  0.28954604  0.31444212     0.13900
H473        H  0.27340674  0.35648129  0.33801799     0.14500
loop_ 
_geom_bond_atom_site_label_1 
_geom_bond_atom_site_label_2 
_geom_bond_distance 
_geom_bond_site_symmetry_2 
_ccdc_geom_bond_type 
N1            N2   1.315       .  A
N1            N7   1.316       .  A
N1          Mn30   2.167       .  S
N2            C9   1.343       .  A
N3            N5   1.317       .  A
N3            N4   1.323       .  A
N3          Mn19   2.220       .  S
N4           C10   1.356       .  A
N5            N6   1.318       .  A
N5          Mn30   2.188       .  S
N6           C10   1.348       .  A
N7            N8   1.330       .  A
N7          Mn19   2.258       .  S
N8            C9   1.364       .  A
C9          C462   1.477       .  S
C10         C451   1.470       .  S
N11          N17   1.319       .  A
N11          N12   1.321       .  A
N11         Mn41   2.208       .  S
N12          C20   1.353       .  A
N13          N14   1.323       .  A
N13          N15   1.318       .  A
N13         Mn19   2.214       .  S
N14          C21   1.353       .  A
N15          N16   1.322       .  A
N15         Mn41   2.220       .  S
N16          C21   1.354       .  A
N17          N18   1.327       .  A
N17         Mn19   2.241       .  S
N18          C20   1.358       .  A
Mn19        Cl43   2.568       .  S
C20         C459   1.493       .  S
C21         C471   1.481       .  S
N22          N23   1.319       .  A
N22          N28   1.315       .  A
N22         Mn30   2.190       .  S
N23          C31   1.351       .  A
N24          N26   1.314       .  A
N24          N25   1.320       .  A
N24         Mn42   2.190       .  S
N25          C32   1.351       .  A
N26          N27   1.318       .  A
N26         Mn30   2.193       .  S
N27          C32   1.351       .  A
N28          N29   1.324       .  A
N28         Mn42   2.220       .  S
N29          C31   1.356       .  A
Mn30        Cl43   2.531       .  S
C31         C442   1.478       .  S
C32         C454   1.465       .  S
N33          N34   1.318       .  A
N33          N39   1.316       .  A
N33         Mn41   2.198       .  S
N34          C44   1.349       .  A
N35          N36   1.318       .  A
N35          N37   1.317       .  A
N35         Mn42   2.190       .  S
N36          C45   1.348       .  A
N37          N38   1.326       .  A
N37         Mn41   2.228       .  S
N38          C45   1.358       .  A
N39          N40   1.324       .  A
N39         Mn42   2.217       .  S
N40          C44   1.357       .  A
Mn41        Cl43   2.537       .  S
Mn42        Cl43   2.564       .  S
C44         C467   1.474       .  S
C45         C446   1.476       .  S
C46          C47   1.540       .  S
C46          C52   1.542       .  S
C46          C50   1.543       .  S
C46         C443   1.513       .  S
C47          H54   1.085       .  S
C47          C48   1.368       .  D
C48          C49   1.531       .  S
C48         C434   1.473       .  S
C49          C53   1.531       .  S
C49          C51   1.528       .  S
C49          H55   1.112       .  S
C50          H56   1.086       .  S
C50          C51   1.364       .  D
C51         C430   1.476       .  S
C52          H57   1.085       .  S
C52          C53   1.369       .  D
C53         C438   1.482       .  S
C58          C59   1.539       .  S
C58          C64   1.542       .  S
C58          C62   1.545       .  S
C58         C447   1.517       .  S
C59          H66   1.084       .  S
C59          C60   1.368       .  D
C60          C61   1.539       .  S
C60         C418   1.491       .  S
C61          C65   1.531       .  S
C61          C63   1.539       .  S
C61          H67   1.110       .  S
C62          H68   1.086       .  S
C62          C63   1.367       .  D
C63         C427   1.486       .  S
C64          H69   1.086       .  S
C64          C65   1.366       .  D
C65         C422   1.480       .  S
C70          C71   1.546       .  S
C70          C76   1.541       .  S
C70          C74   1.540       .  S
C70         C450   1.512       .  S
C71          H78   1.085       .  S
C71          C72   1.367       .  D
C72          C73   1.530       .  S
C72         C414   1.479       .  S
C73          C77   1.530       .  S
C73          C75   1.533       .  S
C73          H79   1.112       .  S
C74          H80   1.085       .  S
C74          C75   1.368       .  D
C75         C406   1.480       .  S
C76          H81   1.086       .  S
C76          C77   1.366       .  D
C77         C410   1.478       .  S
C82          C83   1.539       .  S
C82          C88   1.550       .  S
C82          C86   1.542       .  S
C82         C458   1.528       .  S
C83          H90   1.086       .  S
C83          C84   1.368       .  D
C84          C85   1.541       .  S
C84         C402   1.481       .  S
C85          C89   1.533       .  S
C85          C87   1.542       .  S
C85          H91   1.108       .  S
C86          H92   1.087       .  S
C86          C87   1.363       .  D
C87         C399   1.494       .  S
C88          H93   1.085       .  S
C88          C89   1.374       .  D
C89         C395   1.491       .  S
N94          C99   1.353   1_655  A
N94          C98   1.355       .  A
N94         H126   1.037       .  S
N95         C102   1.352   1_545  A
N95         C103   1.351       .  A
N96         C101   1.358   1_655  A
N96         C100   1.357       .  A
N96         H127   1.038       .  S
N97         C104   1.353   1_545  A
N97         C105   1.355       .  A
C98         C106   1.387       .  A
C98         C114   1.416       .  A
C99         C115   1.417       .  A
C99         C107   1.389       .  A
C100        C108   1.387       .  A
C100        C117   1.421       .  A
C101        C116   1.421       .  A
C101        C109   1.386       .  A
C102        C114   1.413       .  A
C102        C110   1.385       .  A
C103        C117   1.415       .  A
C103        C111   1.388       .  A
C104        C112   1.386       .  A
C104        C115   1.417       .  A
C105        C113   1.386       .  A
C105        C116   1.418       .  A
C106        C107   1.374   1_655  A
C106        H118   1.083       .  S
C107        H119   1.083       .  S
C108        C109   1.377   1_655  A
C108        H120   1.082       .  S
C109        H121   1.082       .  S
C110        C111   1.370   1_565  A
C110        H122   1.082       .  S
C111        H123   1.082       .  S
C112        C113   1.373   1_565  A
C112        H124   1.083       .  S
C113        H125   1.082       .  S
C114        C439   1.490       .  S
C115        C411   1.487       .  S
C116        C394   1.502       .  S
C117        C423   1.493       .  S
C128        C129   1.534       .  S
C128        C134   1.534       .  S
C128        C132   1.537       .  S
C128        C455   1.504       .  S
C129        H136   1.085       .  S
C129        C130   1.366       .  D
C130        C131   1.538       .  S
C130        C387   1.484       .  S
C131        C135   1.544       .  S
C131        C133   1.547       .  S
C131        H137   1.103       .  S
C132        H138   1.086       .  S
C132        C133   1.366       .  D
C133        C382   1.490       .  S
C134        H139   1.087       .  S
C134        C135   1.360       .  D
C135        C390   1.484       .  S
C140        C141   1.539       .  S
C140        C146   1.539       .  S
C140        C144   1.553       .  S
C140        C463   1.520       .  S
C141        H148   1.086       .  S
C141        C142   1.367       .  D
C142        C143   1.531       .  S
C142        C371   1.478       .  S
C143        C147   1.529       .  S
C143        C145   1.532       .  S
C143        H149   1.112       .  S
C144        H150   1.085       .  S
C144        C145   1.372       .  D
C145        C374   1.488       .  S
C146        H151   1.086       .  S
C146        C147   1.365       .  D
C147        C379   1.477       .  S
N152        C157   1.352   1_556  A
N152        C156   1.352       .  A
N152        H184   1.036       .  S
N153        C160   1.354   1_655  A
N153        C161   1.353       .  A
N154        C159   1.353   1_556  A
N154        C158   1.350       .  A
N154        H185   1.035       .  S
N155        C162   1.352   1_655  A
N155        C163   1.353       .  A
C156        C164   1.386       .  A
C156        C172   1.415       .  A
C157        C173   1.417       .  A
C157        C165   1.388       .  A
C158        C166   1.388       .  A
C158        C175   1.419       .  A
C159        C174   1.416       .  A
C159        C167   1.387       .  A
C160        C172   1.414       .  A
C160        C168   1.386       .  A
C161        C175   1.417       .  A
C161        C169   1.388       .  A
C162        C170   1.386       .  A
C162        C173   1.415       .  A
C163        C171   1.384       .  A
C163        C174   1.415       .  A
C164        C165   1.376   1_556  A
C164        H176   1.082       .  S
C165        H177   1.082       .  S
C166        C167   1.376   1_556  A
C166        H178   1.082       .  S
C167        H179   1.081       .  S
C168        C169   1.372   1_455  A
C168        H180   1.082       .  S
C169        H181   1.082       .  S
C170        C171   1.371   1_455  A
C170        H182   1.082       .  S
C171        H183   1.079       .  S
C172        C407   1.487       .  S
C173        C370   1.486       .  S
C174        C383   1.488       .  S
C175        C435   1.486       .  S
C186        C187   1.543       .  S
C186        C192   1.544       .  S
C186        C190   1.549       .  S
C186        C470   1.519       .  S
C187        H194   1.085       .  S
C187        C188   1.365       .  D
C188        C189   1.528       .  S
C188        C362   1.481       .  S
C189        C193   1.527       .  S
C189        C191   1.533       .  S
C189        H195   1.112       .  S
C190        H196   1.085       .  S
C190        C191   1.373       .  D
C191        C358   1.487       .  S
C192        H197   1.086       .  S
C192        C193   1.367       .  D
C193        C366   1.477       .  S
N198        C203   1.349   1_565  A
N198        C202   1.354       .  A
N198        H230   1.032   1_565  S
N199        C206   1.351       .  A
N199        C207   1.350   1_655  A
N200        C205   1.351   1_565  A
N200        C204   1.351       .  A
N200        H231   1.036   1_565  S
N201        C208   1.352   1_455  A
N201        C209   1.354       .  A
C202        C210   1.388       .  A
C202        C218   1.418       .  A
C203        C219   1.420       .  A
C203        C211   1.388       .  A
C204        C212   1.387       .  A
C204        C221   1.414       .  A
C205        C220   1.413       .  A
C205        C213   1.385       .  A
C206        C218   1.414       .  A
C206        C214   1.385       .  A
C207        C221   1.412       .  A
C207        C215   1.386       .  A
C208        C216   1.389       .  A
C208        C219   1.418       .  A
C209        C217   1.385       .  A
C209        C220   1.413       .  A
C210        C211   1.374   1_565  A
C210        H222   1.081       .  S
C211        H223   1.082       .  S
C212        C213   1.376   1_565  A
C212        H224   1.082       .  S
C213        H225   1.082       .  S
C214        C215   1.370   1_655  A
C214        H226   1.080       .  S
C215        H227   1.082       .  S
C216        C217   1.371   1_655  A
C216        H228   1.082       .  S
C217        H229   1.082       .  S
C218        C391   1.485       .  S
C219        C354   1.482       .  S
C220        C367   1.490       .  S
C221        C378   1.480       .  S
N232        C237   1.358       .  A
N232        C236   1.356   1_554  A
N232        H264   1.037       .  S
N233        C240   1.351       .  A
N233        C241   1.353   1_565  A
N234        C239   1.353       .  A
N234        C238   1.358   1_554  A
N234        H265   1.037       .  S
N235        C242   1.353       .  A
N235        C243   1.352   1_565  A
C236        C244   1.387       .  A
C236        C252   1.418       .  A
C237        C253   1.419       .  A
C237        C245   1.387       .  A
C238        C246   1.386       .  A
C238        C255   1.417       .  A
C239        C254   1.419       .  A
C239        C247   1.389       .  A
C240        C252   1.415       .  A
C240        C248   1.387       .  A
C241        C255   1.411       .  A
C241        C249   1.384       .  A
C242        C250   1.384       .  A
C242        C253   1.414       .  A
C243        C251   1.387       .  A
C243        C254   1.416       .  A
C244        C245   1.372   1_556  A
C244        H256   1.082       .  S
C245        H257   1.082       .  S
C246        C247   1.374   1_556  A
C246        H258   1.082       .  S
C247        H259   1.082       .  S
C248        C249   1.372   1_565  A
C248        H260   1.082       .  S
C249        H261   1.082       .  S
C250        C251   1.373   1_565  A
C250        H262   1.082       .  S
C251        H263   1.082       .  S
C252        C415   1.489       .  S
C253        C375   1.497       .  S
C254        C363   1.485       .  S
C255        C398   1.492       .  S
N266        C271   1.358   1_554  A
N266        C270   1.355       .  A
N266        H298   1.036       .  S
N267        C274   1.353   1_455  A
N267        C275   1.354       .  A
N268        C273   1.355   1_554  A
N268        C272   1.356       .  A
N268        H299   1.037       .  S
N269        C276   1.353   1_455  A
N269        C277   1.352       .  A
C270        C278   1.390       .  A
C270        C286   1.424       .  A
C271        C287   1.420       .  A
C271        C279   1.386       .  A
C272        C280   1.389       .  A
C272        C289   1.422       .  A
C273        C288   1.419       .  A
C273        C281   1.387       .  A
C274        C286   1.418       .  A
C274        C282   1.387       .  A
C275        C289   1.418       .  A
C275        C283   1.386       .  A
C276        C284   1.386       .  A
C276        C287   1.414       .  A
C277        C285   1.387       .  A
C277        C288   1.415       .  A
C278        C279   1.370   1_554  A
C278        H290   1.081       .  S
C279        H291   1.081       .  S
C280        C281   1.372   1_554  A
C280        H292   1.082       .  S
C281        H293   1.082       .  S
C282        C283   1.374   1_655  A
C282        H294   1.082       .  S
C283        H295   1.082       .  S
C284        C285   1.370   1_655  A
C284        H296   1.082       .  S
C285        H297   1.082       .  S
C286        C350   1.492       .  S
C287        C426   1.492       .  S
C288        C403   1.487       .  S
C289        C359   1.495       .  S
C300        C301   1.543       .  S
C300        C306   1.539       .  S
C300        C304   1.547       .  S
C300        C466   1.514       .  S
C301        H308   1.084       .  S
C301        C302   1.370       .  D
C302        C303   1.532       .  S
C302        C351   1.484       .  S
C303        C307   1.526       .  S
C303        C305   1.531       .  S
C303        H309   1.112       .  S
C304        H310   1.085       .  S
C304        C305   1.368       .  D
C305        C346   1.484       .  S
C306        H311   1.086       .  S
C306        C307   1.364       .  D
C307        C355   1.470       .  S
N312        C317   1.356   1_554  A
N312        C316   1.354       .  A
N312        H344   1.032       .  S
N313        C320   1.354       .  A
N313        C321   1.352   1_545  A
N314        C319   1.356   1_554  A
N314        C318   1.355       .  A
N314        H345   1.036       .  S
N315        C322   1.351       .  A
N315        C323   1.349   1_545  A
C316        C324   1.388       .  A
C316        C332   1.424       .  A
C317        C333   1.421       .  A
C317        C325   1.386       .  A
C318        C326   1.388       .  A
C318        C335   1.420       .  A
C319        C334   1.419       .  A
C319        C327   1.387       .  A
C320        C332   1.419       .  A
C320        C328   1.387       .  A
C321        C335   1.417       .  A
C321        C329   1.387       .  A
C322        C330   1.386       .  A
C322        C333   1.413       .  A
C323        C331   1.386       .  A
C323        C334   1.413       .  A
C324        C325   1.374   1_554  A
C324        H336   1.082       .  S
C325        H337   1.082       .  S
C326        C327   1.373   1_554  A
C326        H338   1.083       .  S
C327        H339   1.082       .  S
C328        C329   1.373   1_545  A
C328        H340   1.082       .  S
C329        H341   1.082       .  S
C330        C331   1.371   1_545  A
C330        H342   1.082       .  S
C331        H343   1.083       .  S
C332        C347   1.493       .  S
C333        C419   1.492       .  S
C334        C431   1.488       .  S
C335        C386   1.487       .  S
C346        H348   1.087       .  S
C346        C347   1.345       .  D
C347        H349   1.085       .  S
C350        H352   1.084       .  S
C350        C351   1.345       .  D
C351        H353   1.087       .  S
C354        H356   1.086       .  S
C354        C355   1.340       .  D
C355        H357   1.088       .  S
C358        H360   1.087       .  S
C358        C359   1.344       .  D
C359        H361   1.085       .  S
C362        H364   1.087       .  S
C362        C363   1.343       .  D
C363        H365   1.084       .  S
C366        H368   1.087       .  S
C366        C367   1.342       .  D
C367        H369   1.086       .  S
C370        H372   1.086       .  S
C370        C371   1.342       .  D
C371        H373   1.087       .  S
C374        H376   1.088       .  S
C374        C375   1.346       .  D
C375        H377   1.086       .  S
C378        H380   1.085       .  S
C378        C379   1.341       .  D
C379        H381   1.087       .  S
C382        H384   1.087       .  S
C382        C383   1.343       .  D
C383        H385   1.082       .  S
C386        H388   1.085       .  S
C386        C387   1.345       .  D
C387        H389   1.087       .  S
C390        H392   1.087       .  S
C390        C391   1.339       .  D
C391        H393   1.084       .  S
C394        H396   1.086       .  S
C394        C395   1.347       .  D
C395        H397   1.087       .  S
C398        H400   1.084       .  S
C398        C399   1.343       .  D
C399        H401   1.087       .  S
C402        H404   1.086       .  S
C402        C403   1.344       .  D
C403        H405   1.087       .  S
C406        H408   1.087       .  S
C406        C407   1.342       .  D
C407        H409   1.086       .  S
C410        H412   1.087       .  S
C410        C411   1.342       .  D
C411        H413   1.086       .  S
C414        H416   1.088       .  S
C414        C415   1.344       .  D
C415        H417   1.085       .  S
C418        H420   1.087       .  S
C418        C419   1.348       .  D
C419        H421   1.084       .  S
C422        H424   1.087       .  S
C422        C423   1.346       .  D
C423        H425   1.086       .  S
C426        H428   1.086       .  S
C426        C427   1.346       .  D
C427        H429   1.086       .  S
C430        H432   1.088       .  S
C430        C431   1.344       .  D
C431        H433   1.086       .  S
C434        H436   1.087       .  S
C434        C435   1.341       .  D
C435        H437   1.086       .  S
C438        H440   1.087       .  S
C438        C439   1.343       .  D
C439        H441   1.086       .  S
C442        H444   1.086       .  S
C442        C443   1.345       .  D
C443        H445   1.087       .  S
C446        H448   1.087       .  S
C446        C447   1.341       .  D
C447        H449   1.087       .  S
C450        H452   1.087       .  S
C450        C451   1.341       .  D
C451        H453   1.087       .  S
C454        H456   1.086       .  S
C454        C455   1.341       .  D
C455        H457   1.087       .  S
C458        H460   1.087       .  S
C458        C459   1.351       .  D
C459        H461   1.086       .  S
C462        H464   1.087       .  S
C462        C463   1.340       .  D
C463        H465   1.086       .  S
C466        H468   1.087       .  S
C466        C467   1.342       .  D
C467        H469   1.087       .  S
C470        H472   1.087       .  S
C470        C471   1.344       .  D
C471        H473   1.086       .  S
