geometry optimzed in LAMMPS
_audit_creation_date              2020-12-01 
_audit_creation_method            'lammps2cif' 
_symmetry_space_group_name_H-M    'P1' 
_symmetry_Int_Tables_number       1 
_symmetry_cell_setting            triclinic 
loop_ 
_symmetry_equiv_pos_as_xyz 
  x,y,z 
_cell_length_a                    35.97966503 
_cell_length_b                    38.71015587574264 
_cell_length_c                    38.96825265322739 
_cell_angle_alpha                 80.3889330512157 
_cell_angle_beta                  87.75459657868788 
_cell_angle_gamma                 87.32779730250104 
loop_ 
_atom_site_label 
_atom_site_type_symbol 
_atom_site_fract_x 
_atom_site_fract_y 
_atom_site_fract_z 
_atom_site_charge 
C1          C  0.07588522  0.09522979  0.09630054     0.86500
C2          C  0.09627749  0.06942354  0.12553030    -0.53700
C3          C  0.12070160  0.08518178  0.14414759     0.09400
C4          C  0.12119781  0.12605656  0.13008473     0.20400
C5          C  0.05706966  0.12431558  0.11501966    -0.54500
C6          C  0.08048211  0.14190960  0.13125045     0.09500
C7          C  0.10754217  0.11344035  0.07359842    -0.54000
C8          C  0.13175616  0.12877992  0.09084382     0.10100
H9          H  0.09276616  0.04137496  0.12981786     0.14600
H10         H  0.13916886  0.14066148  0.14413422     0.00400
H11         H  0.02809199  0.13210164  0.11451893     0.14900
H12         H  0.10990895  0.11541262  0.04543288     0.14700
C13         C  0.06985854  0.17730365  0.14411746     0.30000
C14         C  0.06667678  0.23971425  0.16982853     0.30000
C15         C  0.07876820  0.21048336  0.11785001    -0.06200
C16         C  0.03003303  0.18807531  0.15833997    -0.07000
C17         C  0.09475788  0.17982439  0.17420455    -0.06800
C18         C  0.07728877  0.24201827  0.13094619    -0.06200
C19         C  0.02768632  0.22020863  0.17180035    -0.07000
C20         C  0.09121027  0.21049360  0.18760329    -0.06800
C21         C  0.07086188  0.26824553  0.10271211    -0.32200
N22         N  0.07321455  0.25504285  0.07251151     0.14300
C23         C  0.07336142  0.21964415  0.08246646    -0.32200
H24         H  0.06852032  0.20145525  0.06502210     0.16200
C25         C  0.49056539  0.22497038  0.18180366    -0.31200
N26         N  0.47020938  0.19798151  0.17392139     0.13000
C27         C  0.49513021  0.17544496  0.16075781    -0.31200
C28         C  0.09259503  0.20132920  0.22277442    -0.31500
N29         N  0.10270453  0.16760545  0.23132203     0.13500
H30         H  0.07760122  0.21612386  0.24030460     0.16100
C31         C  0.10292652  0.15406805  0.20175598    -0.31500
H32         H  0.10108387  0.12724237  0.20039559     0.16100
H33         H  0.48716598  0.15189934  0.15200469     0.16100
H34         H  0.06651743  0.29588638  0.10390009     0.16200
H35         H  0.47824669  0.24755359  0.19162576     0.16100
C36         C  0.06751922  0.31612906  0.22373013     0.86500
C37         C  0.09981291  0.33693698  0.20374413    -0.53700
C38         C  0.12863700  0.31666538  0.19275150     0.09400
C39         C  0.11994744  0.27645894  0.20187526     0.20400
C40         C  0.05364151  0.29327685  0.19867053    -0.54500
C41         C  0.07923821  0.27163505  0.18692784     0.09500
C42         C  0.08689386  0.29102848  0.25348041    -0.54000
C43         C  0.11539190  0.27056371  0.24301550     0.10100
H44         H  0.10020885  0.36502565  0.19914748     0.14600
H45         H  0.14179235  0.25910657  0.19215758     0.00400
H46         H  0.02454279  0.29267087  0.19241192     0.14900
H47         H  0.07906564  0.29013825  0.28080360     0.14700
C48         C  0.20698282  0.04128665  0.21567670     0.30000
C49         C  0.15030073  0.06536213  0.17063678     0.30000
C50         C  0.21555177  0.07082705  0.18714569    -0.06200
C51         C  0.19468788  0.01402469  0.19441273    -0.07000
C52         C  0.17016403  0.05213225  0.23221600    -0.06800
C53         C  0.18733579  0.08578543  0.16658197    -0.06200
C54         C  0.16557435  0.02544605  0.17084891    -0.07000
C55         C  0.14079101  0.06331132  0.21036595    -0.06800
C56         C  0.20515865  0.11066889  0.14237204    -0.32200
N57         N  0.24247505  0.10600698  0.14381329     0.14300
C58         C  0.24856761  0.07951389  0.17012406    -0.32200
H59         H  0.27443223  0.06481516  0.17507847     0.16200
C60         C  0.15772709  0.49399960  0.15836293    -0.31200
N61         N  0.18147466  0.46665721  0.17244434     0.13000
C62         C  0.20372313  0.47876755  0.19468585    -0.31200
C63         C  0.11095041  0.06921196  0.23286760    -0.31500
N64         N  0.12280856  0.06583777  0.26623441     0.13500
H65         H  0.08296711  0.07784808  0.22532461     0.16100
C66         C  0.15856993  0.05367348  0.26583641    -0.31500
H67         H  0.17587282  0.04833451  0.28820445     0.16100
H68         H  0.22524084  0.46317117  0.20943884     0.16100
H69         H  0.19272354  0.13283473  0.12751194     0.16200
H70         H  0.13695104  0.49179479  0.13962456     0.16100
C71         C  0.32599096  0.11193563  0.08112239     0.86500
C72         C  0.34439913  0.13429489  0.10486536    -0.53700
C73         C  0.32125723  0.15646951  0.11929672     0.09400
C74         C  0.28001655  0.15651474  0.10468120     0.20400
C75         C  0.29390291  0.09535629  0.10451932    -0.54500
C76         C  0.26976034  0.11826579  0.11690029     0.09500
C77         C  0.30655110  0.13741479  0.05140349    -0.54000
C78         C  0.28122043  0.16098105  0.06257944     0.10100
H79         H  0.37159729  0.12834645  0.11576584     0.14600
H80         H  0.25933438  0.17453367  0.11509423     0.00400
H81         H  0.29147184  0.06730115  0.11269120     0.14900
H82         H  0.31043086  0.13500491  0.02413732     0.14700
C83         C  0.05974529  0.12255460  0.31535572     0.86500
C84         C  0.06259618  0.14853602  0.28115294    -0.53700
C85         C  0.09616577  0.14854960  0.26521255     0.09400
C86         C  0.12531097  0.12574502  0.28551303     0.20400
C87         C  0.07611309  0.08708028  0.30656457    -0.54500
C88         C  0.10993332  0.08920269  0.28987703     0.09500
C89         C  0.08939079  0.13592590  0.33825396    -0.54000
C90         C  0.12477315  0.13785889  0.32246603     0.10100
H91         H  0.03924556  0.16431551  0.26918704     0.14600
H92         H  0.15164913  0.12760735  0.26973436     0.00400
H93         H  0.05987287  0.06383035  0.30849535     0.14900
H94         H  0.08235848  0.14624370  0.36200446     0.14700
C95         C  0.33125249  0.18996214  0.21959587     0.30000
C96         C  0.33121767  0.16655528  0.15575391     0.30000
C97         C  0.30977444  0.21110264  0.19038573    -0.06200
C98         C  0.37074185  0.19046827  0.19987980    -0.07000
C99         C  0.32106949  0.15130639  0.22021629    -0.06800
C100        C  0.30539313  0.19723157  0.16049337    -0.06200
C101        C  0.37100670  0.17855331  0.16692622    -0.07000
C102        C  0.32100520  0.13968802  0.18806875    -0.06800
C103        C  0.29735757  0.22464859  0.13505728    -0.32200
N104        N  0.30170811  0.25441755  0.14666781     0.14300
C105        C  0.31246977  0.24653710  0.17945223    -0.32200
H106        H  0.32604098  0.26428433  0.19314724     0.16200
C107        C  0.40839107  0.18081564  0.15435832    -0.31200
N108        N  0.43022343  0.19406463  0.17713655     0.13000
C109        C  0.40724862  0.20012629  0.20469529    -0.31200
C110        C  0.32416516  0.10344452  0.19507215    -0.31500
N111        N  0.32340152  0.09183034  0.23000640     0.13500
H112        H  0.32816498  0.08657424  0.17567781     0.16100
C113        C  0.32553278  0.12108456  0.24482451    -0.31500
H114        H  0.32965103  0.12027354  0.27229656     0.16100
H115        H  0.41647278  0.21000754  0.22716534     0.16100
H116        H  0.29624266  0.22278435  0.10848540     0.16200
H117        H  0.41883981  0.17317609  0.13019696     0.16100
C118        C  0.33067915  0.33571651  0.08741353     0.86500
C119        C  0.30058521  0.35930145  0.10475484    -0.53700
C120        C  0.26767509  0.34189323  0.11479526     0.09400
C121        C  0.26984215  0.30351847  0.10608143     0.20400
C122        C  0.33511834  0.30289362  0.11530571    -0.54500
C123        C  0.30332659  0.28695041  0.12459389     0.09500
C124        C  0.30969436  0.32463455  0.05720428    -0.54000
C125        C  0.28029584  0.30504079  0.06743679     0.10100
H126        H  0.30551322  0.38528963  0.11007583     0.14600
H127        H  0.24532559  0.28734258  0.11419189     0.00400
H128        H  0.36153675  0.29208204  0.12588544     0.14900
H129        H  0.31920886  0.32880304  0.03011337     0.14700
C130        C  0.27784123  0.01468597  0.28941399     0.86500
C131        C  0.24912995  0.00872378  0.26299543    -0.53700
C132        C  0.23854326  0.03828414  0.24126015     0.09400
C133        C  0.25759729  0.07177029  0.24867713     0.20400
C134        C  0.31085469  0.03347769  0.26735076    -0.54500
C135        C  0.29952307  0.06394069  0.24595563     0.09500
C136        C  0.26044194  0.04382520  0.30841958    -0.54000
C137        C  0.25036745  0.07345759  0.28697131     0.10100
H138        H  0.23699665  0.98362322  0.26278802     0.14600
H139        H  0.24866240  0.09701037  0.23265874     0.00400
H140        H  0.34001185  0.02580787  0.27071452     0.14900
H141        H  0.25735341  0.04167800  0.33653884     0.14700
C142        C  0.16576475  0.33186444  0.17450444     0.30000
C143        C  0.23217260  0.35052021  0.13739977     0.30000
C144        C  0.16845064  0.32698245  0.13713807    -0.06200
C145        C  0.17665466  0.37258707  0.17066837    -0.07000
C146        C  0.20188022  0.31187227  0.18777731    -0.06800
C147        C  0.19973498  0.33889703  0.11813378    -0.06200
C148        C  0.21088584  0.38149714  0.15157723    -0.07000
C149        C  0.23453519  0.32431990  0.17172492    -0.06800
C150        C  0.19482899  0.33443641  0.08457500    -0.32200
N151        N  0.16425428  0.31567796  0.08417919     0.14300
C152        C  0.14763837  0.31143395  0.11613940    -0.32200
H153        H  0.12270731  0.29815688  0.12399656     0.16200
C154        C  0.21459192  0.41742844  0.14924705    -0.31200
N155        N  0.18441188  0.43157068  0.16510626     0.13000
C156        C  0.16173727  0.40477623  0.17869234    -0.31200
C157        C  0.26324233  0.30774913  0.19123492    -0.31500
N158        N  0.24990967  0.28034024  0.21408011     0.13500
H159        H  0.29200270  0.31495678  0.18827750     0.16100
C160        C  0.21268920  0.28126125  0.20942613    -0.31500
H161        H  0.19560969  0.25946361  0.21745399     0.16100
H162        H  0.13673315  0.40868684  0.19399192     0.16100
H163        H  0.21300572  0.34324974  0.06246187     0.16200
H164        H  0.23769784  0.43222633  0.13694337     0.16100
C165        C  0.12438739  0.31302692  0.99731663     0.86500
C166        C  0.09018811  0.29417996  0.01633402    -0.53700
C167        C  0.09903747  0.27048586  0.04548305     0.09400
C168        C  0.14050321  0.26751811  0.05211553     0.20400
C169        C  0.14400583  0.32789516  0.02544988    -0.54500
C170        C  0.15059226  0.30476337  0.05418964     0.09500
C171        C  0.15144312  0.28297298  0.98905692    -0.54000
C172        C  0.15954568  0.25859296  0.01785022     0.10100
H173        H  0.06231419  0.29956154  0.00754119     0.14600
H174        H  0.14763600  0.24944901  0.07638451     0.00400
H175        H  0.15090145  0.35520754  0.02368176     0.14900
H176        H  0.16543344  0.28236466  0.96406011     0.14700
C177        C  0.31303376  0.25088145  0.29108946     0.86500
C178        C  0.33537647  0.22362567  0.27239420    -0.53700
C179        C  0.31457271  0.20702986  0.25172247     0.09400
C180        C  0.27117536  0.21912991  0.25425646     0.20400
C181        C  0.29304461  0.27563399  0.26164386    -0.54500
C182        C  0.27061213  0.25967118  0.24249273     0.09500
C183        C  0.28069949  0.23173471  0.31177063    -0.54000
C184        C  0.25839354  0.21492993  0.29373947     0.10100
H185        H  0.36552472  0.22105292  0.27233093     0.14600
H186        H  0.25287869  0.20594372  0.23859678     0.00400
H187        H  0.29430688  0.30387992  0.25668376     0.14900
H188        H  0.27371119  0.23521181  0.33802844     0.14700
C189        C  0.25135577  0.18488598  0.03845529     0.30000
C190        C  0.19188843  0.23157441  0.02017638     0.30000
C191        C  0.25634375  0.22436767  0.04025716    -0.06200
C192        C  0.23763800  0.18797624  0.99848653    -0.07000
C193        C  0.21350766  0.17670199  0.05700176    -0.06800
C194        C  0.22621019  0.24687803  0.03110165    -0.06200
C195        C  0.20691608  0.21253547  0.99051403    -0.07000
C196        C  0.18444182  0.20115459  0.04890204    -0.06800
C197        C  0.23458916  0.28010579  0.03483675    -0.32200
N198        N  0.26867666  0.27925594  0.04762938     0.14300
C199        C  0.28343352  0.24590248  0.04861814    -0.32200
H200        H  0.31167185  0.23774492  0.05564611     0.16200
C201        C  0.19302331  0.21057824  0.45805376    -0.31200
N202        N  0.21329450  0.18563491  0.44437710     0.13000
C203        C  0.24067830  0.17235461  0.46767103    -0.31200
C204        C  0.15184135  0.18456323  0.05744734    -0.31500
N205        N  0.15925142  0.15143370  0.07239909     0.13500
H206        H  0.12515290  0.19441699  0.04844520     0.16100
C207        C  0.19633731  0.14512112  0.06747057    -0.31500
H208        H  0.21007981  0.11937765  0.07179508     0.16100
H209        H  0.26067720  0.15153921  0.46369802     0.16100
H210        H  0.21726521  0.30339241  0.02842169     0.16200
H211        H  0.16936627  0.22525496  0.44583536     0.16100
C212        C  0.22254575  0.19722032  0.31032852     0.30000
C213        C  0.15828047  0.16036633  0.32919914     0.30000
C214        C  0.22239556  0.16006116  0.30276205    -0.06200
C215        C  0.21219036  0.19038086  0.35083672    -0.07000
C216        C  0.18593319  0.21429233  0.29487285    -0.06800
C217        C  0.19187007  0.14124900  0.31480627    -0.06200
C218        C  0.17872266  0.17199480  0.36074824    -0.07000
C219        C  0.15427660  0.19567829  0.30400065    -0.06800
C220        C  0.20135386  0.10637669  0.31499724    -0.32200
N221        N  0.23506654  0.10412927  0.29917759     0.14300
C222        C  0.24857543  0.13676315  0.29246976    -0.32200
H223        H  0.27570510  0.14344810  0.28250681     0.16200
C224        C  0.17720781  0.16649213  0.39741437    -0.31200
N225        N  0.20843628  0.17898691  0.40976372     0.13000
C226        C  0.22952737  0.19326923  0.38174092    -0.31200
C227        C  0.12458460  0.21625794  0.28894987    -0.31500
N228        N  0.13722892  0.24557774  0.26828758     0.13500
H229        H  0.09564157  0.21017363  0.29335901     0.16100
C230        C  0.17389400  0.24626999  0.27599908    -0.31500
H231        H  0.19032570  0.26922233  0.27068642     0.16100
H232        H  0.25572203  0.20472746  0.38450848     0.16100
H233        H  0.18427806  0.08451103  0.32500855     0.16200
H234        H  0.15506075  0.15403740  0.41384661     0.16100
C235        C  0.55904219  0.44220561  0.36014058     0.42500
N236        N  0.50668284  0.42823250  0.38683601     0.01400
C237        C  0.35951336  0.04662958  0.40304053    -0.06500
H238        H  0.45966175  0.05982356  0.47125482     0.06900
C239        C  0.45556456  0.44528331  0.54219758    -0.06900
Co240      Co  0.45005236  0.48715924  0.37820055     0.78600
N241        N  0.44870367  0.52921604  0.43430754    -0.26000
Co242      Co  0.40472123  0.49952544  0.45476246     0.74100
C243        C  0.46599602  0.97960321  0.54491552     0.42600
N244        N  0.47407587  0.39541380  0.48397830     0.01000
N245        N  0.43311269  0.48290623  0.50033907     0.01100
N246        N  0.88856114  0.54347885  0.35398907    -0.46900
H247        H  0.04058674  0.50581582  0.34965638     0.06800
N248        N  0.46918005  0.52236633  0.40737751     0.01400
N249        N  0.36018389  0.46805626  0.47404794     0.01100
C250        C  0.30829758  0.94418691  0.47169093     0.42700
N251        N  0.48935395  0.38273078  0.45738011    -0.25500
C252        C  0.91997545  0.46040276  0.31643009    -0.06400
N253        N  0.53893340  0.41532961  0.37654196    -0.46600
N254        N  0.32660386  0.97459174  0.46576878    -0.46800
C255        C  0.41641510  0.41960435  0.31102560     0.42500
N256        N  0.39686877  0.51231543  0.37896342     0.01400
N257        N  0.42196501  0.36793152  0.43089994    -0.25500
N258        N  0.50264562  0.46227740  0.37665381    -0.26000
N259        N  0.40271499  0.37336536  0.45891197     0.01000
H260        H  0.42412020  0.32745592  0.39965173     0.06900
H261        H  0.33026307  0.39089493  0.49341991     0.06900
N262        N  0.37930582  0.51641554  0.40843652    -0.26100
N263        N  0.43686086  0.44949620  0.51272522    -0.25700
N264        N  0.43477203  0.41627179  0.36366468     0.01400
C265        C  0.00090749  0.06101831  0.42784730     0.42800
C266        C  0.51438249  0.35742842  0.47082654    -0.06900
N267        N  0.36592648  0.43450783  0.48612270    -0.25700
H268        H  0.46038210  0.42072749  0.55940035     0.06900
N269        N  0.00147825  0.54186973  0.40280460    -0.46900
H270        H  0.52714056  0.33793880  0.45669967     0.06900
C271        C  0.38236609  0.32584394  0.44579746     0.42600
C272        C  0.03534577  0.47873055  0.36005138    -0.06400
Co273      Co  0.46357030  0.39824491  0.40935476     0.73800
N274        N  0.49100421  0.38479731  0.51307053    -0.46600
C275        C  0.86919921  0.06701624  0.36997616     0.42900
N276        N  0.42568812  0.39727770  0.34040958    -0.46600
Co277      Co  0.41930050  0.41261345  0.48596166     0.73900
C278        C  0.33326488  0.41891881  0.48899087    -0.06900
C279        C  0.46774557  0.05203250  0.44653696    -0.06500
N280        N  0.43049251  0.45015215  0.35192035    -0.26000
N281        N  0.45273000  0.00098573  0.51648460    -0.46800
H282        H  0.34962647  0.05906526  0.42474222     0.06900
C283        C  0.41302971  0.33787205  0.42222545    -0.06900
Cl284      Cl  0.43404255  0.44938785  0.43180242    -0.49900
C285        C  0.51338598  0.35714397  0.50938193     0.42600
H286        H  0.91888972  0.48554833  0.29945704     0.06800
N287        N  0.37747647  0.34921376  0.46815959    -0.46600
C288        C  0.35256366  0.30944540  0.43062505    -0.05200
C289        C  0.35121953  0.27281542  0.43842158    -0.05200
C290        C  0.34489871  0.25342747  0.41205561    -0.23300
C291        C  0.34179481  0.27057724  0.37748627     0.18900
C292        C  0.34029784  0.30755527  0.37035034     0.16100
C293        C  0.34198248  0.32665297  0.39759798    -0.18400
C294        C  0.34066248  0.32483093  0.33584360    -0.20200
C295        C  0.33890013  0.30578017  0.30867511    -0.12700
C296        C  0.33437308  0.26925618  0.31563186     0.03900
C297        C  0.34015286  0.25160527  0.34993329    -0.24900
H298        H  0.35946247  0.25906231  0.46368691     0.09000
H299        H  0.34565388  0.22505431  0.41813828     0.12600
H300        H  0.34321750  0.35500937  0.39151907     0.12500
H301        H  0.34214564  0.35312037  0.32984373     0.12300
H302        H  0.33925156  0.32025777  0.28249263     0.12800
H303        H  0.33903840  0.22326656  0.35564558     0.14800
C304        C  0.11521659  0.34417802  0.96921298    -0.05200
C305        C  0.09738128  0.37387097  0.98037383    -0.05200
C306        C  0.09669961  0.40641363  0.95925349    -0.23300
C307        C  0.11005726  0.40947110  0.92493382     0.18900
C308        C  0.12491714  0.37947743  0.91193999     0.16100
C309        C  0.12891035  0.34723089  0.93452326    -0.18400
C310        C  0.13561045  0.39057170  0.37821086    -0.20200
C311        C  0.12213037  0.42078724  0.35644333    -0.12700
C312        C  0.09746019  0.43777598  0.86731593     0.03900
C313        C  0.10292405  0.44065676  0.90198410    -0.24900
H314        H  0.08639167  0.37236642  0.00684017     0.09000
H315        H  0.08378789  0.42875325  0.96923357     0.12600
H316        H  0.14145812  0.32478052  0.92467255     0.12500
H317        H  0.14960737  0.36970016  0.36668675     0.12300
H318        H  0.12336591  0.42124056  0.32855688     0.12800
H319        H  0.08924850  0.46255748  0.91224070     0.14800
C320        C  0.28930492  0.93617445  0.44148502    -0.05200
C321        C  0.25206902  0.94708565  0.43592801    -0.05200
C322        C  0.23911510  0.95423913  0.40196691    -0.23300
C323        C  0.26437887  0.95346680  0.37360310     0.18900
C324        C  0.30094257  0.93965204  0.37939321     0.16100
C325        C  0.31222795  0.92857318  0.41338775    -0.18400
C326        C  0.32739335  0.94256680  0.35179382    -0.20200
C327        C  0.31986213  0.96482347  0.32053037    -0.12700
C328        C  0.28477454  0.98187298  0.31600376     0.03900
C329        C  0.25576065  0.97158823  0.34063861    -0.24900
H330        H  0.23274435  0.45648303  0.45734216     0.09000
H331        H  0.21092327  0.96483388  0.39787155     0.12600
H332        H  0.34119884  0.92046417  0.41761666     0.12500
H333        H  0.35512559  0.93110910  0.35596107     0.12300
H334        H  0.34190637  0.97012341  0.30102207     0.12800
H335        H  0.22799992  0.98339031  0.33655032     0.14800
C336        C  0.50130838  0.32199040  0.03176741    -0.05200
C337        C  0.48059123  0.29810436  0.01791316    -0.05200
C338        C  0.44273370  0.29609725  0.02682535    -0.23300
C339        C  0.42690204  0.31657864  0.05069383     0.18900
C340        C  0.44989218  0.33280045  0.07095781     0.16100
C341        C  0.48869850  0.33029621  0.06458223    -0.18400
C342        C  0.43344262  0.35375985  0.09426175    -0.20200
C343        C  0.39440383  0.35922581  0.09662050    -0.12700
C344        C  0.37103820  0.34365490  0.07592067     0.03900
C345        C  0.38859733  0.32151785  0.05371815    -0.24900
H346        H  0.49630661  0.28911993  0.50233670     0.09000
H347        H  0.42539355  0.28184024  0.01236441     0.12600
H348        H  0.50619755  0.34563945  0.07778488     0.12500
H349        H  0.45075251  0.36626600  0.11031031     0.12300
H350        H  0.38237184  0.37387359  0.11597078     0.12800
H351        H  0.37285891  0.30531560  0.04008803     0.14800
C352        C  0.01807148  0.11995183  0.32361981    -0.05200
C353        C  0.99701552  0.11125216  0.29647522    -0.05200
C354        C  0.95870149  0.11262290  0.29778580    -0.23300
C355        C  0.93979086  0.11847311  0.32806320     0.18900
C356        C  0.95975899  0.12498317  0.35686112     0.16100
C357        C  0.99904413  0.12751004  0.35394996    -0.18400
C358        C  0.94006069  0.12553970  0.38858650    -0.20200
C359        C  0.90388841  0.11279066  0.39298487    -0.12700
C360        C  0.88658702  0.10171948  0.36488456     0.03900
C361        C  0.90188202  0.11200742  0.33152958    -0.24900
H362        H  0.01060007  0.10478407  0.27289845     0.09000
H363        H  0.94400842  0.10648069  0.27592444     0.12600
H364        H  0.01450046  0.13333856  0.37543742     0.12500
H365        H  0.95404538  0.13118902  0.41100394     0.12300
H366        H  0.39331879  0.10284140  0.41877905     0.12800
H367        H  0.88768410  0.60677615  0.30908558     0.14800
C368        C  0.45021287  0.98827178  0.08217350    -0.05200
C369        C  0.46758635  0.01668864  0.09173434    -0.05200
C370        C  0.44623717  0.04714531  0.09458933    -0.23300
C371        C  0.40872108  0.04899734  0.08588318     0.18900
C372        C  0.39082024  0.01801541  0.08302877     0.16100
C373        C  0.41149729  0.98634812  0.08748228    -0.18400
C374        C  0.35459874  0.01993317  0.07087072    -0.20200
C375        C  0.33566823  0.05236628  0.06329308    -0.12700
C376        C  0.35153982  0.08282733  0.07071492     0.03900
C377        C  0.38953614  0.08120270  0.07833719    -0.24900
H378        H  0.49764836  0.01762503  0.09073243     0.09000
H379        H  0.45947435  0.07007105  0.09975804     0.12600
H380        H  0.40341491  0.96490583  0.58226166     0.12500
H381        H  0.34114011  0.99652790  0.06682814     0.12300
H382        H  0.30702073  0.05310494  0.05551792     0.12800
H383        H  0.40425414  0.10476094  0.07919156     0.14800
C384        C  0.03398822  0.33546242  0.23698439    -0.05200
C385        C  0.00544654  0.31474767  0.25418710    -0.05200
C386        C  0.97169653  0.32979480  0.26340442    -0.23300
C387        C  0.96635254  0.36612156  0.25737841     0.18900
C388        C  0.99477701  0.38758237  0.24078773     0.16100
C389        C  0.02826930  0.37211986  0.23003373    -0.18400
C390        C  0.98987859  0.42412892  0.23717556    -0.20200
C391        C  0.95982000  0.43871263  0.25439825    -0.12700
C392        C  0.93403614  0.41669486  0.27428187     0.03900
C393        C  0.93473647  0.38121095  0.27146309    -0.24900
H394        H  0.00901367  0.28642039  0.25955037     0.09000
H395        H  0.95036296  0.31305939  0.27653957     0.12600
H396        H  0.04941997  0.38884334  0.21692901     0.12500
H397        H  0.01099061  0.44111688  0.22406666     0.12300
H398        H  0.95947654  0.46647336  0.25548260     0.12800
H399        H  0.41497938  0.35792057  0.29066361     0.14800
C400        C  0.05134973  0.08140930  0.07090994    -0.05200
C401        C  0.02106117  0.10330030  0.05709714    -0.05200
C402        C  0.01411831  0.10835302  0.02198572    -0.23300
C403        C  0.03438700  0.08894301  0.00028457     0.18900
C404        C  0.05912598  0.06138683  0.01450847     0.16100
C405        C  0.06780546  0.05778630  0.04998677    -0.18400
C406        C  0.07444871  0.03851602  0.99265974    -0.20200
C407        C  0.05773789  0.04072088  0.46055793    -0.12700
C408        C  0.03567643  0.06787784  0.94574044     0.03900
C409        C  0.02723162  0.09466878  0.96497779    -0.24900
H410        H  0.00454537  0.11992541  0.07171241     0.09000
H411        H  0.99281242  0.12767731  0.01178490     0.12600
H412        H  0.09035469  0.03985179  0.05999836     0.12500
H413        H  0.09345603  0.01704298  0.00279912     0.12300
H414        H  0.05977962  0.51452168  0.45002384     0.12800
H415        H  0.49880428  0.11441491  0.96241249     0.14800
C416        C  0.07605117  0.09665767  0.59627160     0.86500
C417        C  0.09678789  0.07052700  0.62483708    -0.53700
C418        C  0.12174672  0.08587008  0.64310459     0.09400
C419        C  0.12233024  0.12696561  0.62950173     0.20400
C420        C  0.05777057  0.12545810  0.61551173    -0.54500
C421        C  0.08155736  0.14297707  0.63126845     0.09500
C422        C  0.10741684  0.11498524  0.57305592    -0.54000
C423        C  0.13217811  0.13013987  0.59004332     0.10100
H424        H  0.09304289  0.04250785  0.62901672     0.14600
H425        H  0.14088729  0.14120946  0.64343557     0.00400
H426        H  0.02876626  0.13316494  0.61571181     0.14900
H427        H  0.10913869  0.11708686  0.54486582     0.14700
C428        C  0.07084572  0.17848363  0.64385311     0.30000
C429        C  0.06753154  0.24098421  0.66915181     0.30000
C430        C  0.07907356  0.21165021  0.61723128    -0.06200
C431        C  0.03104727  0.18900827  0.65875557    -0.07000
C432        C  0.09630319  0.18138827  0.67336812    -0.06800
C433        C  0.07749567  0.24325441  0.63012609    -0.06200
C434        C  0.02877509  0.22121926  0.67201118    -0.07000
C435        C  0.09248881  0.21204504  0.68673257    -0.06800
C436        C  0.07096970  0.26936693  0.60178294    -0.32200
N437        N  0.07348144  0.25601492  0.57165656     0.14300
C438        C  0.07378199  0.22060352  0.58179351    -0.32200
H439        H  0.06916972  0.20226064  0.56444695     0.16200
C440        C  0.48976124  0.22510063  0.68018579    -0.31200
N441        N  0.46934711  0.19858919  0.67154382     0.13000
C442        C  0.49405117  0.17610438  0.65807893    -0.31200
C443        C  0.09376316  0.20288321  0.72191473    -0.31500
N444        N  0.10421034  0.16928496  0.73047008     0.13500
H445        H  0.07842093  0.21747593  0.73943095     0.16100
C446        C  0.10478898  0.15576502  0.70091577    -0.31500
H447        H  0.10312422  0.12892588  0.69961720     0.16100
H448        H  0.48593763  0.15292936  0.64872469     0.16100
H449        H  0.06650917  0.29702654  0.60282996     0.16200
H450        H  0.47755490  0.24744627  0.69049365     0.16100
C451        C  0.06813297  0.31674204  0.72337187     0.86500
C452        C  0.10024782  0.33789222  0.70340255    -0.53700
C453        C  0.12911783  0.31770453  0.69207493     0.09400
C454        C  0.12067944  0.27755127  0.70107544     0.20400
C455        C  0.05438410  0.29423293  0.69800184    -0.54500
C456        C  0.08003721  0.27285038  0.68609233     0.09500
C457        C  0.08776402  0.29154874  0.75289828    -0.54000
C458        C  0.11636054  0.27136256  0.74226053     0.10100
H459        H  0.10025665  0.36601912  0.69897138     0.14600
H460        H  0.14247586  0.26037404  0.69105429     0.00400
H461        H  0.02530477  0.29358876  0.69168873     0.14900
H462        H  0.07998831  0.29038435  0.78026835     0.14700
C463        C  0.20786899  0.04082844  0.71403530     0.30000
C464        C  0.15120454  0.06529779  0.66921520     0.30000
C465        C  0.21724260  0.06893439  0.68425622    -0.06200
C466        C  0.19391454  0.01301925  0.69423423    -0.07000
C467        C  0.17173090  0.05365500  0.73045273    -0.06800
C468        C  0.18906477  0.08416247  0.66386879    -0.06200
C469        C  0.16483642  0.02461974  0.67062784    -0.07000
C470        C  0.14241288  0.06492080  0.70868704    -0.06800
C471        C  0.20680774  0.10905075  0.63981564    -0.32200
N472        N  0.24413107  0.10386333  0.64076149     0.14300
C473        C  0.25032578  0.07728855  0.66707826    -0.32200
H474        H  0.27632575  0.06288860  0.67232282     0.16200
C475        C  0.15842530  0.49376153  0.65789711    -0.31200
N476        N  0.18222175  0.46652759  0.67188871     0.13000
C477        C  0.20386595  0.47819426  0.69483998    -0.31200
C478        C  0.11247331  0.07075250  0.73106680    -0.31500
N479        N  0.12420585  0.06742799  0.76443800     0.13500
H480        H  0.08443275  0.07907422  0.72342625     0.16100
C481        C  0.16000145  0.05524727  0.76408594    -0.31500
H482        H  0.17698397  0.04916452  0.78662545     0.16100
H483        H  0.22503476  0.46238194  0.70987051     0.16100
H484        H  0.19428661  0.13178507  0.62603368     0.16200
H485        H  0.13786372  0.49166722  0.63892842     0.16100
C486        C  0.32767359  0.11240520  0.57785493     0.86500
C487        C  0.34561376  0.13435639  0.60228264    -0.53700
C488        C  0.32194130  0.15592783  0.61720785     0.09400
C489        C  0.28082969  0.15560216  0.60270550     0.20400
C490        C  0.29590886  0.09484076  0.60110461    -0.54500
C491        C  0.27134828  0.11702227  0.61408404     0.09500
C492        C  0.30759712  0.13840740  0.54874589    -0.54000
C493        C  0.28192294  0.16137052  0.56066218     0.10100
H494        H  0.37309365  0.12864451  0.61268406     0.14600
H495        H  0.25985483  0.17291118  0.61373855     0.00400
H496        H  0.29400648  0.06669021  0.60887256     0.14900
H497        H  0.31156316  0.13691357  0.52127931     0.14700
C498        C  0.06055442  0.12371386  0.81380046     0.86500
C499        C  0.06378189  0.15013546  0.77996993    -0.53700
C500        C  0.09742888  0.15012497  0.76422706     0.09400
C501        C  0.12634510  0.12699777  0.78442751     0.20400
C502        C  0.07689173  0.08837956  0.80454480    -0.54500
C503        C  0.11092018  0.09055753  0.78819965     0.09500
C504        C  0.09011186  0.13660481  0.83717586    -0.54000
C505        C  0.12563490  0.13860745  0.82161304     0.10100
H506        H  0.04059569  0.16617655  0.76800704     0.14600
H507        H  0.15271369  0.12900557  0.76870645     0.00400
H508        H  0.06056334  0.06524539  0.80599489     0.14900
H509        H  0.08292257  0.14666007  0.86103858     0.14700
C510        C  0.33083773  0.19035438  0.71730673     0.30000
C511        C  0.33128007  0.16647872  0.65354849     0.30000
C512        C  0.30854293  0.21072672  0.68819756    -0.06200
C513        C  0.37011335  0.19145993  0.69728602    -0.07000
C514        C  0.32138820  0.15147815  0.71813412    -0.06800
C515        C  0.30482454  0.19682897  0.65814409    -0.06200
C516        C  0.37055808  0.17927506  0.66448132    -0.07000
C517        C  0.32155151  0.13964936  0.68604694    -0.06800
C518        C  0.29637391  0.22421264  0.63265764    -0.32200
N519        N  0.29943638  0.25406306  0.64460087     0.14300
C520        C  0.31026155  0.24614114  0.67733976    -0.32200
H521        H  0.32407681  0.26387738  0.69085376     0.16200
C522        C  0.40780184  0.18151378  0.65189659    -0.31200
N523        N  0.42943506  0.19498300  0.67458351     0.13000
C524        C  0.40649556  0.20125681  0.70205138    -0.31200
C525        C  0.32471673  0.10344607  0.69320352    -0.31500
N526        N  0.32394547  0.09204466  0.72817255     0.13500
H527        H  0.32879569  0.08648277  0.67391380     0.16100
C528        C  0.32591498  0.12139747  0.74286887    -0.31500
H529        H  0.32965480  0.12075553  0.77037242     0.16100
H530        H  0.41574476  0.21112932  0.72451575     0.16100
H531        H  0.29616401  0.22240295  0.60596947     0.16200
H532        H  0.41836088  0.17352980  0.62792573     0.16100
C533        C  0.33171309  0.33559083  0.58805248     0.86500
C534        C  0.30123861  0.35926973  0.60468866    -0.53700
C535        C  0.26777709  0.34243588  0.61308242     0.09400
C536        C  0.26972907  0.30437753  0.60346654     0.20400
C537        C  0.33449190  0.30238076  0.61550225    -0.54500
C538        C  0.30223221  0.28669634  0.62285229     0.09500
C539        C  0.31237211  0.32508034  0.55654766    -0.54000
C540        C  0.28181817  0.30636610  0.56512738     0.10100
H541        H  0.30642468  0.38473133  0.61121953     0.14600
H542        H  0.24480022  0.28849729  0.61042022     0.00400
H543        H  0.36023023  0.29111784  0.62721101     0.14900
H544        H  0.32427854  0.32827859  0.53023303     0.14700
C545        C  0.27852094  0.01511766  0.78786205     0.86500
C546        C  0.25016963  0.00873966  0.76132015    -0.53700
C547        C  0.23946358  0.03810634  0.73941726     0.09400
C548        C  0.25814389  0.07184553  0.74658191     0.20400
C549        C  0.31154932  0.03390743  0.76590771    -0.54500
C550        C  0.30015052  0.06416048  0.74420202     0.09500
C551        C  0.26074741  0.04441463  0.80649557    -0.54000
C552        C  0.25057403  0.07388824  0.78481724     0.10100
H553        H  0.23818740  0.98354096  0.76128343     0.14600
H554        H  0.24911120  0.09680645  0.73010353     0.00400
H555        H  0.34070725  0.02636490  0.76950928     0.14900
H556        H  0.25754029  0.04249314  0.83458745     0.14700
C557        C  0.16615085  0.33256828  0.67348100     0.30000
C558        C  0.23247674  0.35092909  0.63602626     0.30000
C559        C  0.16843124  0.32804836  0.63600429    -0.06200
C560        C  0.17741612  0.37295443  0.66990856    -0.07000
C561        C  0.20219751  0.31218436  0.68627852    -0.06800
C562        C  0.19976399  0.33979201  0.61689013    -0.06200
C563        C  0.21153906  0.38181226  0.65059721    -0.07000
C564        C  0.23485071  0.32443080  0.67005810    -0.06800
C565        C  0.19471288  0.33551758  0.58337154    -0.32200
N566        N  0.16407603  0.31689887  0.58309418     0.14300
C567        C  0.14744161  0.31271074  0.61503878    -0.32200
H568        H  0.12250007  0.29951020  0.62294642     0.16200
C569        C  0.21523579  0.41768091  0.64825917    -0.31200
N570        N  0.18516047  0.43163690  0.66437694     0.13000
C571        C  0.16256991  0.40493599  0.67811323    -0.31200
C572        C  0.26349266  0.30811159  0.68974285    -0.31500
N573        N  0.25010272  0.28082468  0.71272106     0.13500
H574        H  0.29223997  0.31538223  0.68683155     0.16100
C575        C  0.21291093  0.28172917  0.70810517    -0.31500
H576        H  0.19579796  0.26002773  0.71638330     0.16100
H577        H  0.13768249  0.40883831  0.69356260     0.16100
H578        H  0.21294431  0.34414217  0.56124699     0.16200
H579        H  0.23819123  0.43257294  0.63576946     0.16100
C580        C  0.12407518  0.31477103  0.49645845     0.86500
C581        C  0.08997753  0.29555138  0.51556128    -0.53700
C582        C  0.09911116  0.27158632  0.54444444     0.09400
C583        C  0.14062667  0.26886519  0.55091882     0.20400
C584        C  0.14374507  0.32935579  0.52464054    -0.54500
C585        C  0.15050429  0.30607000  0.55313815     0.09500
C586        C  0.15142968  0.28486505  0.48788012    -0.54000
C587        C  0.15984572  0.26026596  0.51664135     0.10100
H588        H  0.06181279  0.30117380  0.50744146     0.14600
H589        H  0.14788157  0.25083878  0.57516960     0.00400
H590        H  0.15048760  0.35668905  0.52313896     0.14900
H591        H  0.16514410  0.28449050  0.46270356     0.14700
C592        C  0.31362699  0.25143276  0.78937920     0.86500
C593        C  0.33581361  0.22429713  0.77020523    -0.53700
C594        C  0.31472559  0.20763613  0.74966091     0.09400
C595        C  0.27140188  0.21965905  0.75278996     0.20400
C596        C  0.29331812  0.27616040  0.76012276    -0.54500
C597        C  0.27074694  0.26019119  0.74114855     0.09500
C598        C  0.28169267  0.23198824  0.81029704    -0.54000
C599        C  0.25916023  0.21528073  0.79243753     0.10100
H600        H  0.36596207  0.22176491  0.76987503     0.14600
H601        H  0.25285653  0.20654077  0.73729778     0.00400
H602        H  0.29467596  0.30436439  0.75484124     0.14900
H603        H  0.27525718  0.23499867  0.83678302     0.14700
C604        C  0.25184477  0.18603855  0.53728294     0.30000
C605        C  0.19236651  0.23310043  0.51920466     0.30000
C606        C  0.25723765  0.22569155  0.53865319    -0.06200
C607        C  0.23753531  0.18885935  0.49773674    -0.07000
C608        C  0.21409901  0.17822475  0.55626026    -0.06800
C609        C  0.22707536  0.24833721  0.52959882    -0.06200
C610        C  0.20691512  0.21356142  0.48978948    -0.07000
C611        C  0.18505663  0.20284187  0.54831857    -0.06800
C612        C  0.23585034  0.28167072  0.53267157    -0.32200
N613        N  0.27036006  0.28098681  0.54466810     0.14300
C614        C  0.28473317  0.24739987  0.54611516    -0.32200
H615        H  0.31290555  0.23912333  0.55329558     0.16200
C616        C  0.19377014  0.21035824  0.95821507    -0.31200
N617        N  0.21460584  0.18608333  0.94404889     0.13000
C618        C  0.24158620  0.17238608  0.96772427    -0.31200
C619        C  0.15239776  0.18617980  0.55680554    -0.31500
N620        N  0.15965619  0.15289972  0.57143439     0.13500
H621        H  0.12578456  0.19608639  0.54767162     0.16100
C622        C  0.19672494  0.14665668  0.56630368    -0.31500
H623        H  0.21036514  0.12086507  0.56991653     0.16100
H624        H  0.26184873  0.15184043  0.96357404     0.16100
H625        H  0.21820897  0.30485436  0.52678499     0.16200
H626        H  0.17013087  0.22504295  0.94598344     0.16100
C627        C  0.22348384  0.19760665  0.80941246     0.30000
C628        C  0.15920686  0.16094693  0.82864520     0.30000
C629        C  0.22313031  0.16045797  0.80179857    -0.06200
C630        C  0.21340670  0.19080808  0.85010552    -0.07000
C631        C  0.18686256  0.21480756  0.79414396    -0.06800
C632        C  0.19275449  0.14167441  0.81421900    -0.06200
C633        C  0.17989993  0.17252467  0.86015308    -0.07000
C634        C  0.15518303  0.19635082  0.80345509    -0.06800
C635        C  0.20196673  0.10682831  0.81368059    -0.32200
N636        N  0.23518749  0.10469300  0.79687057     0.14300
C637        C  0.24874111  0.13732732  0.79029067    -0.32200
H638        H  0.27549397  0.14415502  0.77944408     0.16200
C639        C  0.17846644  0.16714578  0.89687069    -0.31200
N640        N  0.20972716  0.17961306  0.90926079     0.13000
C641        C  0.23077541  0.19382830  0.88108584    -0.31200
C642        C  0.12553093  0.21704701  0.78833117    -0.31500
N643        N  0.13825370  0.24622124  0.76742923     0.13500
H644        H  0.09655349  0.21110698  0.79277621     0.16100
C645        C  0.17495445  0.24675785  0.77509579    -0.31500
H646        H  0.19153625  0.26960408  0.76965599     0.16100
H647        H  0.25694113  0.20539106  0.88374203     0.16100
H648        H  0.18494918  0.08495447  0.82381470     0.16200
H649        H  0.15629317  0.15476634  0.91332425     0.16100
C650        C  0.55854163  0.44198470  0.85854625     0.42500
N651        N  0.50590232  0.42798782  0.88463645     0.01400
C652        C  0.35861750  0.04860081  0.90319898    -0.06500
H653        H  0.45339367  0.06334527  0.97237554     0.06900
C654        C  0.45698039  0.44440658  0.04222041    -0.06900
Co655      Co  0.44994845  0.48742989  0.87723287     0.78600
N656        N  0.45131953  0.52844557  0.93393715    -0.26000
Co657      Co  0.40691878  0.49908383  0.95471994     0.74100
C658        C  0.46195089  0.97970516  0.04827278     0.42600
N659        N  0.47494773  0.39397683  0.98237830     0.01000
N660        N  0.43613360  0.48167517  0.99935185     0.01100
N661        N  0.88825931  0.53927049  0.85418277    -0.46900
H662        H  0.03901348  0.49843077  0.84843303     0.06800
N663        N  0.47048672  0.52196989  0.90612608     0.01400
N664        N  0.36202718  0.46780082  0.97441874     0.01100
C665        C  0.30608980  0.94613566  0.97095593     0.42700
N666        N  0.48931700  0.38182757  0.95507095    -0.25500
C667        C  0.91762917  0.45585972  0.81917272    -0.06400
N668        N  0.53812451  0.41505426  0.87434111    -0.46600
N669        N  0.32450794  0.97645247  0.96518872    -0.46800
C670        C  0.41588227  0.42124097  0.80909948     0.42500
N671        N  0.39732732  0.51352838  0.87918479     0.01400
N672        N  0.42138515  0.36796653  0.92942737    -0.25500
N673        N  0.50206205  0.46206478  0.87472874    -0.26000
N674        N  0.40276818  0.37285826  0.95797143     0.01000
H675        H  0.42469923  0.32701913  0.89871762     0.06900
H676        H  0.33198626  0.39072985  0.99451448     0.06900
N677        N  0.38059746  0.51720347  0.90915706    -0.26100
N678        N  0.43895562  0.44834774  0.01231063    -0.25700
N679        N  0.43355999  0.41701644  0.86209551     0.01400
C680        C  0.00412589  0.06034029  0.92596963     0.42800
C681        C  0.51331625  0.35520893  0.96750746    -0.06900
N682        N  0.36760157  0.43425788  0.98667916    -0.25700
H683        H  0.46110309  0.41998650  0.05988559     0.06900
N684        N  0.00216389  0.53665690  0.90448664    -0.46900
H685        H  0.52457154  0.33572463  0.95260036     0.06900
C686        C  0.38386519  0.32431483  0.94556609     0.42600
C687        C  0.03367617  0.47172819  0.86024400    -0.06400
Co688      Co  0.46283235  0.39823422  0.90747898     0.73800
N689        N  0.49159392  0.38141535  0.01123459    -0.46600
C690        C  0.87079680  0.06675403  0.86581085     0.42900
N691        N  0.42495738  0.39848175  0.83826732    -0.46600
Co692      Co  0.42047522  0.41179049  0.98537510     0.73900
C693        C  0.33490402  0.41877915  0.99014563    -0.06900
C694        C  0.46325046  0.05515088  0.94827566    -0.06500
N695        N  0.42941596  0.45101903  0.85078216    -0.26000
N696        N  0.44870550  0.00188403  0.02020455    -0.46800
H697        H  0.34819065  0.06149488  0.92442100     0.06900
C698        C  0.41335753  0.33746000  0.92118907    -0.06900
Cl699      Cl  0.43458517  0.44911964  0.93092851    -0.49900
C700        C  0.51240968  0.35312917  0.00624970     0.42600
H701        H  0.91663726  0.48106951  0.80230957     0.06800
N702        N  0.37853739  0.34782673  0.96784330    -0.46600
C703        C  0.35469886  0.30639806  0.93100906    -0.05200
C704        C  0.35655780  0.26956852  0.93714838    -0.05200
C705        C  0.35031362  0.25088882  0.91013959    -0.23300
C706        C  0.34428949  0.26903842  0.87632950     0.18900
C707        C  0.34006156  0.30594595  0.87090330     0.16100
C708        C  0.34159706  0.32397775  0.89901660    -0.18400
C709        C  0.33794419  0.32453196  0.83702654    -0.20200
C710        C  0.33663837  0.30669123  0.80891273    -0.12700
C711        C  0.33465977  0.26983450  0.81427465     0.03900
C712        C  0.34249730  0.25119994  0.84784319    -0.24900
H713        H  0.36700054  0.25546823  0.96147533     0.09000
H714        H  0.35338521  0.22253137  0.91497422     0.12600
H715        H  0.34062196  0.35245872  0.89404800     0.12500
H716        H  0.33737752  0.35295996  0.83221501     0.12300
H717        H  0.33546108  0.32238272  0.78336155     0.12800
H718        H  0.34306989  0.22276877  0.85237908     0.14800
C719        C  0.11453512  0.34673777  0.46918651    -0.05200
C720        C  0.09534778  0.37519722  0.48152513    -0.05200
C721        C  0.09357278  0.40847501  0.46183644    -0.23300
C722        C  0.10827730  0.41385189  0.42791989     0.18900
C723        C  0.12544030  0.38541264  0.41381156     0.16100
C724        C  0.12966793  0.35217957  0.43488900    -0.18400
C725        C  0.13237151  0.38200176  0.87598682    -0.20200
C726        C  0.11802601  0.41123539  0.85344095    -0.12700
C727        C  0.09925092  0.44561961  0.37067142     0.03900
C728        C  0.10123530  0.44599417  0.40635505    -0.24900
H729        H  0.08412195  0.37216191  0.50800322     0.09000
H730        H  0.07933099  0.42966023  0.47273600     0.12600
H731        H  0.14410214  0.33095088  0.42438200     0.12500
H732        H  0.14443243  0.35980168  0.86523070     0.12300
H733        H  0.11662080  0.40972172  0.82602067     0.12800
H734        H  0.08567234  0.46653205  0.41724430     0.14800
C735        C  0.28770923  0.93783661  0.94052621    -0.05200
C736        C  0.25069302  0.94909696  0.93429858    -0.05200
C737        C  0.23831855  0.95598972  0.90015361    -0.23300
C738        C  0.26395635  0.95459179  0.87219924     0.18900
C739        C  0.30033829  0.94054820  0.87860133     0.16100
C740        C  0.31103203  0.92971469  0.91286487    -0.18400
C741        C  0.32719485  0.94311595  0.85131485    -0.20200
C742        C  0.32024319  0.96532706  0.81984064    -0.12700
C743        C  0.28524993  0.98246926  0.81473614     0.03900
C744        C  0.25587285  0.97238293  0.83899932    -0.24900
H745        H  0.23387244  0.45197695  0.95875260     0.09000
H746        H  0.21028375  0.96681626  0.89556658     0.12600
H747        H  0.33987301  0.92145137  0.91761125     0.12500
H748        H  0.35480943  0.93154260  0.85592729     0.12300
H749        H  0.34261580  0.97052773  0.80064421     0.12800
H750        H  0.22818712  0.98421154  0.83444552     0.14800
C751        C  0.50400854  0.32667468  0.53655509    -0.05200
C752        C  0.48531946  0.30025405  0.52453683    -0.05200
C753        C  0.44790392  0.29575679  0.53423214    -0.23300
C754        C  0.43028491  0.31696728  0.55651493     0.18900
C755        C  0.45159381  0.33656166  0.57510579     0.16100
C756        C  0.49044667  0.33637449  0.56858528    -0.18400
C757        C  0.43324565  0.35845538  0.59658987    -0.20200
C758        C  0.39398334  0.36192782  0.59823901    -0.12700
C759        C  0.37247404  0.34333698  0.57867480     0.03900
C760        C  0.39177649  0.31985242  0.55902536    -0.24900
H761        H  0.49088709  0.28762023  0.99510195     0.09000
H762        H  0.43191612  0.27916114  0.52105825     0.12600
H763        H  0.50645104  0.35405840  0.58042961     0.12500
H764        H  0.44922126  0.37342293  0.61149612     0.12300
H765        H  0.38048345  0.37782876  0.61582789     0.12800
H766        H  0.37700052  0.30183087  0.54664006     0.14800
C767        C  0.01874703  0.12123943  0.82156850    -0.05200
C768        C  0.99791467  0.11340171  0.79386172    -0.05200
C769        C  0.95959325  0.11498350  0.79478672    -0.23300
C770        C  0.94040664  0.11991276  0.82521288     0.18900
C771        C  0.96012270  0.12562146  0.85447988     0.16100
C772        C  0.99942524  0.12811375  0.85199933    -0.18400
C773        C  0.94018383  0.12533788  0.88619267    -0.20200
C774        C  0.90404044  0.11253401  0.88998620    -0.12700
C775        C  0.88717207  0.10188271  0.86143991     0.03900
C776        C  0.90255180  0.11309424  0.82828714    -0.24900
H777        H  0.01170845  0.10742365  0.77018400     0.09000
H778        H  0.94511697  0.10950038  0.77252036     0.12600
H779        H  0.01467821  0.13328709  0.87388529     0.12500
H780        H  0.95396767  0.13037359  0.90897003     0.12300
H781        H  0.38903175  0.10854424  0.91588822     0.12800
H782        H  0.88549916  0.60286391  0.80854894     0.14800
C783        C  0.45540931  0.99070731  0.57802127    -0.05200
C784        C  0.47286952  0.02061944  0.58417824    -0.05200
C785        C  0.45151329  0.05159008  0.58507067    -0.23300
C786        C  0.41328290  0.05221116  0.57899235     0.18900
C787        C  0.39578252  0.02038951  0.57869927     0.16100
C788        C  0.41686986  0.98892087  0.58450693    -0.18400
C789        C  0.35907914  0.02094566  0.56803412    -0.20200
C790        C  0.33906810  0.05277774  0.56012793    -0.12700
C791        C  0.35406085  0.08406216  0.56649900     0.03900
C792        C  0.39253037  0.08386509  0.57230201    -0.24900
H793        H  0.50287005  0.02177553  0.58186008     0.09000
H794        H  0.46516319  0.07549730  0.58686370     0.12600
H795        H  0.39808037  0.96304493  0.08294445     0.12500
H796        H  0.34598466  0.99688398  0.56548775     0.12300
H797        H  0.31022116  0.05235662  0.55327179     0.12800
H798        H  0.40620330  0.10807591  0.57283780     0.14800
C799        C  0.03428175  0.33515770  0.73712181    -0.05200
C800        C  0.00637013  0.31349007  0.75415519    -0.05200
C801        C  0.97237407  0.32747343  0.76400408    -0.23300
C802        C  0.96611631  0.36365600  0.75884320     0.18900
C803        C  0.99383110  0.38607806  0.74233875     0.16100
C804        C  0.02763735  0.37168349  0.73088618    -0.18400
C805        C  0.98788514  0.42244594  0.73947032    -0.20200
C806        C  0.95748614  0.43589012  0.75716926    -0.12700
C807        C  0.93243639  0.41291199  0.77695179     0.03900
C808        C  0.93426750  0.37757757  0.77365460    -0.24900
H809        H  0.01065517  0.28521073  0.75893076     0.09000
H810        H  0.95159385  0.31000315  0.77699387     0.12600
H811        H  0.04836304  0.38899091  0.71785478     0.12500
H812        H  0.00837695  0.44018164  0.72643299     0.12300
H813        H  0.95625491  0.46361109  0.75848359     0.12800
H814        H  0.41204947  0.36032525  0.78761095     0.14800
C815        C  0.05060986  0.08292942  0.57173292    -0.05200
C816        C  0.02028943  0.10502352  0.55828366    -0.05200
C817        C  0.01249721  0.10957438  0.52341207    -0.23300
C818        C  0.03202930  0.08961469  0.50177061     0.18900
C819        C  0.05654144  0.06184282  0.51595789     0.16100
C820        C  0.06608532  0.05871100  0.55109690    -0.18400
C821        C  0.07098846  0.03840496  0.49436883    -0.20200
C822        C  0.06144820  0.04082353  0.95870163    -0.12700
C823        C  0.03254779  0.06823059  0.44748226     0.03900
C824        C  0.02458045  0.09520957  0.46656969    -0.24900
H825        H  0.00449585  0.12221988  0.57281061     0.09000
H826        H  0.99131564  0.12907620  0.51330747     0.12600
H827        H  0.08857427  0.04061175  0.56093617     0.12500
H828        H  0.08968150  0.01669158  0.50455824     0.12300
H829        H  0.06124292  0.51208497  0.95193146     0.12800
H830        H  0.51071025  0.11423397  0.45173307     0.14800
C831        C  0.07430641  0.59537439  0.09854599     0.86500
C832        C  0.09535501  0.56952857  0.12711427    -0.53700
C833        C  0.12018174  0.58525776  0.14517812     0.09400
C834        C  0.12024595  0.62634700  0.13142803     0.20400
C835        C  0.05569776  0.62409697  0.11781241    -0.54500
C836        C  0.07938387  0.64217329  0.13321397     0.09500
C837        C  0.10543276  0.61382478  0.07520866    -0.54000
C838        C  0.12998547  0.62931134  0.09204633     0.10100
H839        H  0.09201450  0.54144368  0.13138408     0.14600
H840        H  0.13868915  0.64084437  0.14516231     0.00400
H841        H  0.02645630  0.63101020  0.11829663     0.14900
H842        H  0.10717062  0.61572616  0.04703220     0.14700
C843        C  0.06870474  0.67796011  0.14556581     0.30000
C844        C  0.06563280  0.74078306  0.17064243     0.30000
C845        C  0.07654624  0.71113985  0.11874125    -0.06200
C846        C  0.02914255  0.68849168  0.16082031    -0.07000
C847        C  0.09451678  0.68117461  0.17474934    -0.06800
C848        C  0.07511355  0.74287463  0.13151657    -0.06200
C849        C  0.02696278  0.72081358  0.17392984    -0.07000
C850        C  0.09101815  0.71199407  0.18791607    -0.06800
C851        C  0.06804884  0.76883732  0.10316744    -0.32200
N852        N  0.07012904  0.75537405  0.07308824     0.14300
C853        C  0.07060742  0.71997238  0.08338806    -0.32200
H854        H  0.06584431  0.70152823  0.06618172     0.16200
C855        C  0.48825315  0.72350960  0.18150114    -0.31200
N856        N  0.46773735  0.69695347  0.17315820     0.13000
C857        C  0.49229258  0.67440493  0.15955827    -0.31200
C858        C  0.09303622  0.70305262  0.22305695    -0.31500
N859        N  0.10340832  0.66944301  0.23169640     0.13500
H860        H  0.07781191  0.71767227  0.24059186     0.16100
C861        C  0.10338601  0.65569802  0.20231597    -0.31500
H862        H  0.10147957  0.62879332  0.20134240     0.16100
H863        H  0.48406086  0.65133890  0.15005945     0.16100
H864        H  0.06351269  0.79650262  0.10414321     0.16200
H865        H  0.47612979  0.74601899  0.19157865     0.16100
C866        C  0.06572526  0.81735035  0.22433046     0.86500
C867        C  0.09782705  0.83849093  0.20421935    -0.53700
C868        C  0.12681314  0.81826768  0.19312847     0.09400
C869        C  0.11852973  0.77804925  0.20251640     0.20400
C870        C  0.05216658  0.79431277  0.19932750    -0.54500
C871        C  0.07795230  0.77290259  0.18755867     0.09500
C872        C  0.08547867  0.79253900  0.25411082    -0.54000
C873        C  0.11417069  0.77226102  0.24371163     0.10100
H874        H  0.09788774  0.86666253  0.19968182     0.14600
H875        H  0.14046152  0.76084860  0.19272842     0.00400
H876        H  0.02309642  0.79344158  0.19309514     0.14900
H877        H  0.07769012  0.79167131  0.28144046     0.14700
C878        C  0.20718312  0.54147649  0.21561948     0.30000
C879        C  0.15014201  0.56512645  0.17099349     0.30000
C880        C  0.21594283  0.56996999  0.18601305    -0.06200
C881        C  0.19404732  0.51354469  0.19552487    -0.07000
C882        C  0.17071034  0.55341499  0.23219746    -0.06800
C883        C  0.18748841  0.58489675  0.16581830    -0.06200
C884        C  0.16475793  0.52471119  0.17203827    -0.07000
C885        C  0.14125321  0.56428316  0.21049315    -0.06800
C886        C  0.20487360  0.60987972  0.14154626    -0.32200
N887        N  0.24222294  0.60496232  0.14219472     0.14300
C888        C  0.24880266  0.57846692  0.16845775    -0.32200
H889        H  0.27493261  0.56418736  0.17339683     0.16200
C890        C  0.15798800  0.99493682  0.15725199    -0.31200
N891        N  0.18136688  0.96743377  0.17139761     0.13000
C892        C  0.20386266  0.97918548  0.19364414    -0.31200
C893        C  0.11138355  0.57040790  0.23281225    -0.31500
N894        N  0.12321916  0.56749065  0.26611142     0.13500
H895        H  0.08336993  0.57877827  0.22513633     0.16100
C896        C  0.15908424  0.55543734  0.26577422    -0.31500
H897        H  0.17626562  0.54997067  0.28820970     0.16100
H898        H  0.22487401  0.96318823  0.20871573     0.16100
H899        H  0.19216733  0.63262399  0.12789278     0.16200
H900        H  0.13688499  0.99282456  0.13880272     0.16100
C901        C  0.32505283  0.61379053  0.07845233     0.86500
C902        C  0.34318148  0.63581301  0.10268823    -0.53700
C903        C  0.31954559  0.65719613  0.11783211     0.09400
C904        C  0.27833481  0.65673990  0.10368207     0.20400
C905        C  0.29359762  0.59602873  0.10201160    -0.54500
C906        C  0.26909877  0.61814453  0.11522788     0.09500
C907        C  0.30471209  0.63953627  0.04954887    -0.54000
C908        C  0.27906942  0.66224059  0.06165190     0.10100
H909        H  0.37072731  0.63018739  0.11293500     0.14600
H910        H  0.25750534  0.67414092  0.11480330     0.00400
H911        H  0.29189286  0.56784574  0.10969254     0.14900
H912        H  0.30835526  0.63795236  0.02207370     0.14700
C913        C  0.05955716  0.62424899  0.31505980     0.86500
C914        C  0.06284399  0.65055331  0.28116322    -0.53700
C915        C  0.09653261  0.65044779  0.26548755     0.09400
C916        C  0.12535058  0.62727386  0.28571475     0.20400
C917        C  0.07574726  0.58883744  0.30588530    -0.54500
C918        C  0.10983222  0.59085416  0.28962445     0.09500
C919        C  0.08915449  0.63716858  0.33835774    -0.54000
C920        C  0.12466408  0.63909458  0.32279542     0.10100
H921        H  0.03970601  0.66661526  0.26914106     0.14600
H922        H  0.15164792  0.62915179  0.26989632     0.00400
H923        H  0.05933099  0.56575394  0.30739566     0.14900
H924        H  0.08196990  0.64744127  0.36210407     0.14700
C925        C  0.32864971  0.69167852  0.21758974     0.30000
C926        C  0.32905295  0.66764223  0.15412035     0.30000
C927        C  0.30713205  0.71264191  0.18825423    -0.06200
C928        C  0.36818426  0.69174861  0.19814372    -0.07000
C929        C  0.31837869  0.65308265  0.21852369    -0.06800
C930        C  0.30338030  0.69859611  0.15831014    -0.06200
C931        C  0.36859364  0.67948137  0.16539790    -0.07000
C932        C  0.31843148  0.64113104  0.18648184    -0.06800
C933        C  0.29582233  0.72582814  0.13253529    -0.32200
N934        N  0.29950144  0.75573780  0.14411974     0.14300
C935        C  0.30965537  0.74805639  0.17714375    -0.32200
H936        H  0.32311356  0.76585171  0.19084134     0.16200
C937        C  0.40599163  0.68077449  0.15320104    -0.31200
N938        N  0.42778009  0.69376065  0.17607744     0.13000
C939        C  0.40479159  0.70065127  0.20329017    -0.31200
C940        C  0.32299046  0.60501617  0.19374958    -0.31500
N941        N  0.32289962  0.59370244  0.22868243     0.13500
H942        H  0.32768688  0.58805396  0.17450744     0.16100
C943        C  0.32422394  0.62318569  0.24318607    -0.31500
H944        H  0.32871811  0.62274743  0.27053933     0.16100
H945        H  0.41411425  0.71046668  0.22575887     0.16100
H946        H  0.29552640  0.72366538  0.10595539     0.16200
H947        H  0.41652743  0.67260807  0.12930870     0.16100
C948        C  0.32769014  0.83761873  0.08518000     0.86500
C949        C  0.29754650  0.86080804  0.10286338    -0.53700
C950        C  0.26486647  0.84309814  0.11294672     0.09400
C951        C  0.26717752  0.80491403  0.10382715     0.20400
C952        C  0.33246358  0.80459455  0.11280987    -0.54500
C953        C  0.30084420  0.78834370  0.12206547     0.09500
C954        C  0.30679259  0.82662758  0.05488227    -0.54000
C955        C  0.27744057  0.80690261  0.06507039     0.10100
H956        H  0.30234979  0.88670697  0.10849492     0.14600
H957        H  0.24279378  0.78856210  0.11193224     0.00400
H958        H  0.35897688  0.79394026  0.12329389     0.14900
H959        H  0.31649045  0.83075284  0.02784262     0.14700
C960        C  0.27837563  0.51713846  0.28925173     0.86500
C961        C  0.24985321  0.51021419  0.26305424    -0.53700
C962        C  0.23887261  0.53928977  0.24087382     0.09400
C963        C  0.25740305  0.57329133  0.24753858     0.20400
C964        C  0.31114656  0.53583386  0.26688639    -0.54500
C965        C  0.29941260  0.56576323  0.24494189     0.09500
C966        C  0.26063897  0.54660086  0.30760269    -0.54000
C967        C  0.25013345  0.57574151  0.28570973     0.10100
H968        H  0.23804799  0.48487047  0.26336168     0.14600
H969        H  0.24815203  0.59811679  0.23096760     0.00400
H970        H  0.34037694  0.52857240  0.27040912     0.14900
H971        H  0.25761809  0.54502503  0.33567451     0.14700
C972        C  0.16375632  0.83316165  0.17423018     0.30000
C973        C  0.22972771  0.85125506  0.13611285     0.30000
C974        C  0.16568915  0.82818899  0.13683231    -0.06200
C975        C  0.17509327  0.87366700  0.17013010    -0.07000
C976        C  0.19996431  0.81292594  0.18697035    -0.06800
C977        C  0.19687728  0.83974287  0.11739882    -0.06200
C978        C  0.20906664  0.88226835  0.15048877    -0.07000
C979        C  0.23248753  0.82501559  0.17031633    -0.06800
C980        C  0.19150944  0.83512440  0.08401880    -0.32200
N981        N  0.16076183  0.81656339  0.08406393     0.14300
C982        C  0.14439934  0.81269751  0.11614580    -0.32200
H983        H  0.11936202  0.79972037  0.12430094     0.16200
C984        C  0.21323098  0.91805619  0.14790717    -0.31200
N985        N  0.18357443  0.93238388  0.16422262     0.13000
C986        C  0.16074890  0.90589540  0.17829416    -0.31200
C987        C  0.26135496  0.80897586  0.18992216    -0.31500
N988        N  0.24819083  0.78196273  0.21340340     0.13500
H989        H  0.29004957  0.81634836  0.18666515     0.16100
C990        C  0.21091313  0.78279697  0.20919804    -0.31500
H991        H  0.19386264  0.76116609  0.21797132     0.16100
H992        H  0.13602253  0.90999990  0.19391798     0.16100
H993        H  0.20948314  0.84371397  0.06170280     0.16200
H994        H  0.23628307  0.93264113  0.13517877     0.16100
C995        C  0.12079550  0.81358688  0.99738797     0.86500
C996        C  0.08663406  0.79443867  0.01655993    -0.53700
C997        C  0.09570391  0.77081424  0.04575964     0.09400
C998        C  0.13715933  0.76816630  0.05226862     0.20400
C999        C  0.14020683  0.82853137  0.02553508    -0.54500
C1000       C  0.14693458  0.80548625  0.05425719     0.09500
C1001       C  0.14802715  0.78356508  0.98919525    -0.54000
C1002       C  0.15620712  0.75920344  0.01802808     0.10100
H1003       H  0.05861031  0.79939293  0.00802968     0.14600
H1004       H  0.14443616  0.75027574  0.07659846     0.00400
H1005       H  0.14693448  0.85589456  0.02376832     0.14900
H1006       H  0.16186361  0.78278026  0.96415693     0.14700
C1007       C  0.31263089  0.75225935  0.28947969     0.86500
C1008       C  0.33424333  0.72502746  0.27028303    -0.53700
C1009       C  0.31275652  0.70870201  0.24996410     0.09400
C1010       C  0.26951900  0.72092633  0.25343830     0.20400
C1011       C  0.29217533  0.77719518  0.26036488    -0.54500
C1012       C  0.26916131  0.76136376  0.24164564     0.09500
C1013       C  0.28080345  0.73304796  0.31093693    -0.54000
C1014       C  0.25759896  0.71677551  0.29325607     0.10100
H1015       H  0.36438100  0.72225512  0.26968437     0.14600
H1016       H  0.25074640  0.70788873  0.23808745     0.00400
H1017       H  0.29386372  0.80536368  0.25492599     0.14900
H1018       H  0.27537309  0.73536238  0.33779121     0.14700
C1019       C  0.24861915  0.68609562  0.03840541     0.30000
C1020       C  0.18868465  0.73224519  0.02042450     0.30000
C1021       C  0.25359860  0.72577376  0.03936419    -0.06200
C1022       C  0.23420443  0.68828456  0.99902208    -0.07000
C1023       C  0.21115486  0.67797733  0.05773515    -0.06800
C1024       C  0.22319883  0.74800899  0.03034486    -0.06200
C1025       C  0.20322607  0.71250362  0.99107313    -0.07000
C1026       C  0.18183888  0.70226482  0.04984437    -0.06800
C1027       C  0.23152026  0.78147631  0.03323749    -0.32200
N1028       N  0.26594711  0.78112581  0.04521064     0.14300
C1029       C  0.28082435  0.74777258  0.04656723    -0.32200
H1030       H  0.30928068  0.73997617  0.05307395     0.16200
C1031       C  0.19135410  0.70956586  0.45987449    -0.31200
N1032       N  0.21260119  0.68572626  0.44546731     0.13000
C1033       C  0.23957514  0.67201143  0.46911536    -0.31200
C1034       C  0.14941279  0.68537398  0.05863995    -0.31500
N1035       N  0.15712284  0.65222342  0.07330955     0.13500
H1036       H  0.12263285  0.69496402  0.04968014     0.16100
C1037       C  0.19418921  0.64625976  0.06801843    -0.31500
H1038       H  0.20807526  0.62057778  0.07168714     0.16100
H1039       H  0.26026824  0.65191906  0.46468755     0.16100
H1040       H  0.21376179  0.80453059  0.02710690     0.16200
H1041       H  0.16777283  0.72431448  0.44760273     0.16100
C1042       C  0.22195474  0.69908674  0.31053807     0.30000
C1043       C  0.15798973  0.66182014  0.32958526     0.30000
C1044       C  0.22177472  0.66212646  0.30244886    -0.06200
C1045       C  0.21197571  0.69171908  0.35130672    -0.07000
C1046       C  0.18509892  0.71624315  0.29560497    -0.06800
C1047       C  0.19157207  0.64306863  0.31474517    -0.06200
C1048       C  0.17867313  0.67302030  0.36118514    -0.07000
C1049       C  0.15356830  0.69746555  0.30482217    -0.06800
C1050       C  0.20119542  0.60831546  0.31432936    -0.32200
N1051       N  0.23441695  0.60648713  0.29753505     0.14300
C1052       C  0.24773499  0.63919214  0.29109613    -0.32200
H1053       H  0.27469363  0.64609369  0.28081962     0.16200
C1054       C  0.17718121  0.66706380  0.39785221    -0.31200
N1055       N  0.20813792  0.67976072  0.41046917     0.13000
C1056       C  0.22904266  0.69472018  0.38244216    -0.31200
C1057       C  0.12373533  0.71798984  0.28982140    -0.31500
N1058       N  0.13617854  0.74740021  0.26908460     0.13500
H1059       H  0.09483604  0.71170607  0.29414001     0.16100
C1060       C  0.17289185  0.74818170  0.27667476    -0.31500
H1061       H  0.18936367  0.77109968  0.27099677     0.16100
H1062       H  0.25477797  0.70699226  0.38520108     0.16100
H1063       H  0.18449904  0.58626605  0.32464077     0.16200
H1064       H  0.15512379  0.65424461  0.41412164     0.16100
C1065       C  0.56037859  0.94332148  0.35896074     0.42500
N1066       N  0.50681403  0.92879784  0.38270893     0.01400
C1067       C  0.35727024  0.54555472  0.40276498    -0.06500
H1068       H  0.45530206  0.56182062  0.47233770     0.06900
C1069       C  0.45842373  0.94416979  0.53944994    -0.06900
Co1070     Co  0.45037031  0.98785852  0.37532740     0.78600
N1071       N  0.45079036  0.02860642  0.43230082    -0.26000
Co1072     Co  0.40665943  0.99882944  0.45280292     0.74100
C1073       C  0.46218104  0.48049267  0.54841787     0.42600
N1074       N  0.47612782  0.89457077  0.48002818     0.01000
N1075       N  0.43594269  0.98160934  0.49749891     0.01100
N1076       N  0.88883522  0.04241347  0.35500341    -0.46900
H1077       H  0.04062092  0.00060520  0.34880040     0.06800
N1078       N  0.47041643  0.02223748  0.40469460     0.01400
N1079       N  0.36210067  0.96707595  0.47225285     0.01100
C1080       C  0.30630190  0.44563993  0.47286030     0.42700
N1081       N  0.49023822  0.88218463  0.45275073    -0.25500
C1082       C  0.91731070  0.95855896  0.31786558    -0.06400
N1083       N  0.53967288  0.91617873  0.37365691    -0.46600
N1084       N  0.32481584  0.47587285  0.46733621    -0.46800
C1085       C  0.41503698  0.92148942  0.30756046     0.42500
N1086       N  0.39744573  0.01349719  0.37725607     0.01400
N1087       N  0.42292590  0.86803028  0.42711045    -0.25500
N1088       N  0.50284439  0.96287806  0.37299026    -0.26000
N1089       N  0.40429861  0.87270751  0.45570229     0.01000
H1090       H  0.42883276  0.82592091  0.39793057     0.06900
H1091       H  0.33300385  0.88960880  0.49172329     0.06900
N1092       N  0.38040139  0.01673583  0.40721736    -0.26100
N1093       N  0.43932992  0.94825449  0.51014209    -0.25700
N1094       N  0.43442464  0.91745515  0.35995576     0.01400
C1095       C  0.00150650  0.56110229  0.42867462     0.42800
C1096       C  0.51282191  0.85447374  0.46531400    -0.06900
N1097       N  0.36808462  0.93354463  0.48430734    -0.25700
H1098       H  0.46341268  0.91962266  0.55671677     0.06900
N1099       N  0.00183084  0.04063979  0.40274723    -0.46900
H1100       H  0.52285963  0.83451366  0.45045593     0.06900
C1101       C  0.38796864  0.82272466  0.44480233     0.42600
C1102       C  0.03456475  0.97383452  0.35976379    -0.06400
Co1103     Co  0.46386936  0.89872275  0.40521232     0.73800
N1104       N  0.49207851  0.88115054  0.50901053    -0.46600
C1105       C  0.86879343  0.56793466  0.36902789     0.42900
N1106       N  0.42493703  0.89882342  0.33652314    -0.46600
Co1107     Co  0.42134955  0.91174291  0.48305007     0.73900
C1108       C  0.33558142  0.91770372  0.48762620    -0.06900
C1109       C  0.46436759  0.55369224  0.44799704    -0.06500
N1110       N  0.43012847  0.95143309  0.34864589    -0.26000
N1111       N  0.44880190  0.50225663  0.52015864    -0.46800
H1112       H  0.34634559  0.55877617  0.42358832     0.06900
C1113       C  0.41668236  0.83667698  0.41991824    -0.06900
Cl1114     Cl  0.43508119  0.94927712  0.42880905    -0.49900
C1115       C  0.51149046  0.85210165  0.50406210     0.42600
H1116       H  0.91636349  0.98365891  0.30081469     0.06800
N1117       N  0.38154208  0.84666718  0.46644942    -0.46600
C1118       C  0.35940470  0.80416064  0.43039894    -0.05200
C1119       C  0.36276923  0.76738472  0.43557325    -0.05200
C1120       C  0.35579285  0.74920938  0.40839063    -0.23300
C1121       C  0.34777704  0.76793330  0.37524417     0.18900
C1122       C  0.34292788  0.80477973  0.37071240     0.16100
C1123       C  0.34492069  0.82211479  0.39918520    -0.18400
C1124       C  0.33945748  0.82407072  0.33728392    -0.20200
C1125       C  0.33684216  0.80691295  0.30890051    -0.12700
C1126       C  0.33476875  0.77011300  0.31379506     0.03900
C1127       C  0.34436833  0.75076594  0.34655382    -0.24900
H1128       H  0.37453898  0.75310032  0.45923446     0.09000
H1129       H  0.35963230  0.72090855  0.41247845     0.12600
H1130       H  0.34305111  0.85059425  0.39491266     0.12500
H1131       H  0.33861094  0.85250116  0.33307018     0.12300
H1132       H  0.33445290  0.82309772  0.28370508     0.12800
H1133       H  0.34503966  0.72234255  0.35048582     0.14800
C1134       C  0.11195835  0.84513813  0.96939035    -0.05200
C1135       C  0.09290856  0.87420040  0.98068024    -0.05200
C1136       C  0.09154611  0.90704922  0.96008364    -0.23300
C1137       C  0.10719518  0.91149482  0.92650047     0.18900
C1138       C  0.12475715  0.88255289  0.91359172     0.16100
C1139       C  0.12799704  0.84968514  0.93539919    -0.18400
C1140       C  0.13100438  0.88171442  0.37794639    -0.20200
C1141       C  0.11811513  0.91153785  0.35528836    -0.12700
C1142       C  0.10064618  0.94214499  0.86840353     0.03900
C1143       C  0.10107052  0.94326797  0.90407815    -0.24900
H1144       H  0.08134970  0.87198736  0.00699657     0.09000
H1145       H  0.07716237  0.92869489  0.97010535     0.12600
H1146       H  0.14248886  0.82808426  0.92560642     0.12500
H1147       H  0.14321149  0.85955541  0.36721625     0.12300
H1148       H  0.11789727  0.91051533  0.32768925     0.12800
H1149       H  0.08521227  0.96424711  0.91399939     0.14800
C1150       C  0.28765432  0.43825099  0.44224260    -0.05200
C1151       C  0.25083993  0.45032049  0.43613162    -0.05200
C1152       C  0.23858176  0.45820826  0.40197823    -0.23300
C1153       C  0.26420368  0.45705161  0.37396578     0.18900
C1154       C  0.30049631  0.44274353  0.38020324     0.16100
C1155       C  0.31093872  0.43076732  0.41431647    -0.18400
C1156       C  0.32748256  0.44577645  0.35303526    -0.20200
C1157       C  0.32054022  0.46811558  0.32166494    -0.12700
C1158       C  0.28541320  0.48493822  0.31647290     0.03900
C1159       C  0.25610348  0.47496053  0.34084911    -0.24900
H1160       H  0.23414997  0.95308800  0.45731893     0.09000
H1161       H  0.21066222  0.46939419  0.39752547     0.12600
H1162       H  0.33967747  0.42202363  0.41894876     0.12500
H1163       H  0.35506677  0.43412282  0.35761331     0.12300
H1164       H  0.34292840  0.47342064  0.30250571     0.12800
H1165       H  0.22838241  0.48671765  0.33632719     0.14800
C1166       C  0.49901997  0.82340671  0.03260078    -0.05200
C1167       C  0.47869822  0.79921704  0.01876517    -0.05200
C1168       C  0.44066233  0.79741060  0.02692952    -0.23300
C1169       C  0.42425530  0.81845998  0.05001912     0.18900
C1170       C  0.44674051  0.83502039  0.07044781     0.16100
C1171       C  0.48566895  0.83215180  0.06503182    -0.18400
C1172       C  0.42977584  0.85665068  0.09286901    -0.20200
C1173       C  0.39073410  0.86220192  0.09441089    -0.12700
C1174       C  0.36789050  0.84603200  0.07377631     0.03900
C1175       C  0.38591692  0.82365031  0.05208751    -0.24900
H1176       H  0.48713881  0.78795208  0.49208033     0.09000
H1177       H  0.42369055  0.78292243  0.01236521     0.12600
H1178       H  0.50284552  0.84765572  0.07837142     0.12500
H1179       H  0.44668904  0.86948699  0.10897102     0.12300
H1180       H  0.37827017  0.87723675  0.11325740     0.12800
H1181       H  0.37042417  0.80738126  0.03830285     0.14800
C1182       C  0.01779200  0.62192428  0.32306528    -0.05200
C1183       C  0.99658475  0.61437975  0.29548139    -0.05200
C1184       C  0.95824914  0.61576192  0.29693220    -0.23300
C1185       C  0.93948626  0.62028937  0.32769485     0.18900
C1186       C  0.95961418  0.62585569  0.35675871     0.16100
C1187       C  0.99888672  0.62842809  0.35381936    -0.18400
C1188       C  0.94011414  0.62546985  0.38870347    -0.20200
C1189       C  0.90391329  0.61282136  0.39288296    -0.12700
C1190       C  0.88644234  0.60249281  0.36448957     0.03900
C1191       C  0.90165120  0.61340501  0.33118972    -0.24900
H1192       H  0.01007089  0.60862767  0.27158576     0.09000
H1193       H  0.94344883  0.61044161  0.27478595     0.12600
H1194       H  0.01444922  0.63338251  0.37560405     0.12500
H1195       H  0.95424553  0.63042371  0.41132708     0.12300
H1196       H  0.38741454  0.60505756  0.41485434     0.12800
H1197       H  0.88798160  0.10488365  0.30962058     0.14800
C1198       C  0.45175449  0.49156863  0.08010089    -0.05200
C1199       C  0.46903131  0.52133380  0.08688969    -0.05200
C1200       C  0.44787452  0.55253864  0.08682187    -0.23300
C1201       C  0.40993880  0.55351557  0.07948707     0.18900
C1202       C  0.39225847  0.52193438  0.07844704     0.16100
C1203       C  0.41292660  0.49026476  0.08469827    -0.18400
C1204       C  0.35579913  0.52293115  0.06698557    -0.20200
C1205       C  0.33603550  0.55491956  0.05941664    -0.12700
C1206       C  0.35122393  0.58578521  0.06656224     0.03900
C1207       C  0.38961397  0.58531564  0.07255413    -0.24900
H1208       H  0.49909254  0.52221252  0.08570298     0.09000
H1209       H  0.46162348  0.57631895  0.08900240     0.12600
H1210       H  0.39954261  0.46352817  0.58523562     0.12500
H1211       H  0.34259901  0.49907364  0.06392769     0.12300
H1212       H  0.30719046  0.55486270  0.05242768     0.12800
H1213       H  0.40347311  0.60935779  0.07340790     0.14800
C1214       C  0.03161305  0.83590744  0.23765737    -0.05200
C1215       C  0.00416753  0.81436202  0.25573898    -0.05200
C1216       C  0.97005052  0.82831462  0.26545713    -0.23300
C1217       C  0.96309471  0.86443315  0.25886696     0.18900
C1218       C  0.99007863  0.88671895  0.24080892     0.16100
C1219       C  0.02404405  0.87227686  0.22963388    -0.18400
C1220       C  0.98335769  0.92313158  0.23627805    -0.20200
C1221       C  0.95334025  0.93701013  0.25419894    -0.12700
C1222       C  0.92940801  0.91436675  0.27579490     0.03900
C1223       C  0.93142841  0.87865670  0.27378621    -0.24900
H1224       H  0.00894637  0.78616887  0.26157550     0.09000
H1225       H  0.94976300  0.81094654  0.27949288     0.12600
H1226       H  0.04419835  0.88945388  0.21538538     0.12500
H1227       H  0.00319704  0.94074409  0.22191649     0.12300
H1228       H  0.95175909  0.96495843  0.25434822     0.12800
H1229       H  0.40985807  0.86037839  0.28671215     0.14800
C1230       C  0.04912085  0.58159026  0.07387111    -0.05200
C1231       C  0.02055774  0.60490822  0.05865463    -0.05200
C1232       C  0.01348483  0.60818291  0.02374554    -0.23300
C1233       C  0.03220675  0.58625702  0.00358652     0.18900
C1234       C  0.05514385  0.55793818  0.01932049     0.16100
C1235       C  0.06409236  0.55596716  0.05454081    -0.18400
C1236       C  0.06859077  0.53281487  0.99912701    -0.20200
C1237       C  0.05584509  0.53709417  0.46305062    -0.12700
C1238       C  0.03263002  0.56280984  0.95040592     0.03900
C1239       C  0.02556220  0.59080658  0.96827172    -0.24900
H1240       H  0.00614301  0.62420955  0.07165321     0.09000
H1241       H  0.99369700  0.62846718  0.01236167     0.12600
H1242       H  0.08552400  0.53724085  0.06554232     0.12500
H1243       H  0.08596485  0.51056837  0.01051480     0.12300
H1244       H  0.06395907  0.01930325  0.44629684     0.12800
H1245       H  0.51131656  0.61539682  0.95126096     0.14800
C1246       C  0.07452026  0.59468358  0.59826925     0.86500
C1247       C  0.09529974  0.56825462  0.62677788    -0.53700
C1248       C  0.11982436  0.58377057  0.64559239     0.09400
C1249       C  0.12009684  0.62480601  0.63224711     0.20400
C1250       C  0.05575415  0.62269622  0.61818609    -0.54500
C1251       C  0.07931883  0.64052538  0.63388461     0.09500
C1252       C  0.10601568  0.61317761  0.57562405    -0.54000
C1253       C  0.13034908  0.62812193  0.59300066     0.10100
H1254       H  0.09188363  0.54019622  0.63060037     0.14600
H1255       H  0.13824728  0.63915986  0.64636130     0.00400
H1256       H  0.02637701  0.62913303  0.61878209     0.14900
H1257       H  0.10823603  0.61552720  0.54740858     0.14700
C1258       C  0.06878836  0.67610905  0.64629899     0.30000
C1259       C  0.06582537  0.73870839  0.67146235     0.30000
C1260       C  0.07705499  0.70920436  0.61960487    -0.06200
C1261       C  0.02921696  0.68673627  0.66116704    -0.07000
C1262       C  0.09433077  0.67901596  0.67574340    -0.06800
C1263       C  0.07566825  0.74086973  0.63246872    -0.06200
C1264       C  0.02704677  0.71900291  0.67432449    -0.07000
C1265       C  0.09093452  0.70980245  0.68895464    -0.06800
C1266       C  0.06847325  0.76688727  0.60425250    -0.32200
N1267       N  0.07051795  0.75354513  0.57413286     0.14300
C1268       C  0.07095982  0.71814313  0.58430226    -0.32200
H1269       H  0.06617472  0.69976935  0.56702178     0.16200
C1270       C  0.48878954  0.72428307  0.68239936    -0.31200
N1271       N  0.46849573  0.69713117  0.67478222     0.13000
C1272       C  0.49345446  0.67459459  0.66165138    -0.31200
C1273       C  0.09240028  0.70070895  0.72410495    -0.31500
N1274       N  0.10236725  0.66698469  0.73273991     0.13500
H1275       H  0.07691248  0.71533894  0.74146636     0.16100
C1276       C  0.10265042  0.65336421  0.70330276    -0.31500
H1277       H  0.10051679  0.62649854  0.70220863     0.16100
H1278       H  0.48550537  0.65100432  0.65299109     0.16100
H1279       H  0.06388329  0.79452414  0.60534121     0.16200
H1280       H  0.47643100  0.74693115  0.69207889     0.16100
C1281       C  0.06509514  0.81548111  0.72460362     0.86500
C1282       C  0.09760720  0.83644394  0.70504768    -0.53700
C1283       C  0.12671851  0.81622134  0.69439542     0.09400
C1284       C  0.11823764  0.77597939  0.70368661     0.20400
C1285       C  0.05199641  0.79247858  0.69940867    -0.54500
C1286       C  0.07793947  0.77087222  0.68824551     0.09500
C1287       C  0.08413813  0.79051843  0.75476950    -0.54000
C1288       C  0.11306074  0.77014541  0.74478807     0.10100
H1289       H  0.09791095  0.86457346  0.70046098     0.14600
H1290       H  0.14025892  0.75867865  0.69420258     0.00400
H1291       H  0.02308079  0.79172948  0.69262234     0.14900
H1292       H  0.07573201  0.78963114  0.78196094     0.14700
C1293       C  0.20574758  0.54005997  0.71741206     0.30000
C1294       C  0.14941674  0.56389879  0.67198072     0.30000
C1295       C  0.21453340  0.56952676  0.68875879    -0.06200
C1296       C  0.19381579  0.51273770  0.69611453    -0.07000
C1297       C  0.16867578  0.55087566  0.73369671    -0.06800
C1298       C  0.18633046  0.58447852  0.66818567    -0.06200
C1299       C  0.16493133  0.52404824  0.67226708    -0.07000
C1300       C  0.13952786  0.56187633  0.71156890    -0.06800
C1301       C  0.20413906  0.60909285  0.64374560    -0.32200
N1302       N  0.24143174  0.60431256  0.64495261     0.14300
C1303       C  0.24754885  0.57786539  0.67137516    -0.32200
H1304       H  0.27335057  0.56301613  0.67621675     0.16200
C1305       C  0.15701524  0.99398271  0.65719514    -0.31200
N1306       N  0.18006687  0.96624633  0.67161084     0.13000
C1307       C  0.20268386  0.97803726  0.69374273    -0.31200
C1308       C  0.10933004  0.56784356  0.73362166    -0.31500
N1309       N  0.12066415  0.56462591  0.76714113     0.13500
H1310       H  0.08153122  0.57662964  0.72559243     0.16100
C1311       C  0.15653357  0.55256029  0.76718515    -0.31500
H1312       H  0.17354050  0.54739842  0.78975864     0.16100
H1313       H  0.22391411  0.96209144  0.70856059     0.16100
H1314       H  0.19171717  0.63154808  0.62936465     0.16200
H1315       H  0.13622106  0.99208879  0.63838187     0.16100
C1316       C  0.32445807  0.61115615  0.58151011     0.86500
C1317       C  0.34295126  0.63328150  0.60540654    -0.53700
C1318       C  0.31980606  0.65525840  0.62009440     0.09400
C1319       C  0.27849876  0.65529285  0.60579026     0.20400
C1320       C  0.29261640  0.59421084  0.60508234    -0.54500
C1321       C  0.26850477  0.61688015  0.61788145     0.09500
C1322       C  0.30469946  0.63684929  0.55212974    -0.54000
C1323       C  0.27942381  0.66025427  0.56366781     0.10100
H1324       H  0.37028617  0.62729413  0.61604829     0.14600
H1325       H  0.25796133  0.67323395  0.61652121     0.00400
H1326       H  0.29039111  0.56612972  0.61317477     0.14900
H1327       H  0.30842599  0.63474978  0.52477782     0.14700
C1328       C  0.05705741  0.62199664  0.81543876     0.86500
C1329       C  0.06095792  0.64827407  0.78160074    -0.53700
C1330       C  0.09484090  0.64786069  0.76631619     0.09400
C1331       C  0.12321708  0.62434046  0.78677840     0.20400
C1332       C  0.07298571  0.58645268  0.80641801    -0.54500
C1333       C  0.10724277  0.58811587  0.79051890     0.09500
C1334       C  0.08664148  0.63469733  0.83900229    -0.54000
C1335       C  0.12236585  0.63632654  0.82373785     0.10100
H1336       H  0.03812658  0.66463187  0.76937983     0.14600
H1337       H  0.14970105  0.62584244  0.77123676     0.00400
H1338       H  0.05632799  0.56354262  0.80775611     0.14900
H1339       H  0.07929096  0.64518391  0.86259777     0.14700
C1340       C  0.32913246  0.68925445  0.71993237     0.30000
C1341       C  0.32975398  0.66547265  0.65639943     0.30000
C1342       C  0.30797149  0.71043502  0.69052861    -0.06200
C1343       C  0.36890893  0.68945386  0.70062257    -0.07000
C1344       C  0.31875481  0.65075741  0.72071852    -0.06800
C1345       C  0.30429435  0.69653753  0.66053473    -0.06200
C1346       C  0.36944542  0.67730608  0.66779194    -0.07000
C1347       C  0.31892885  0.63888453  0.68872757    -0.06800
C1348       C  0.29724901  0.72392751  0.63478977    -0.32200
N1349       N  0.30092990  0.75372971  0.64655336     0.14300
C1350       C  0.31068672  0.74588759  0.67966561    -0.32200
H1351       H  0.32386652  0.76359784  0.69366908     0.16200
C1352       C  0.40683129  0.67962024  0.65529861    -0.31200
N1353       N  0.42851357  0.69311569  0.67800477     0.13000
C1354       C  0.40538211  0.69931144  0.70544077    -0.31200
C1355       C  0.32220930  0.60264858  0.69610962    -0.31500
N1356       N  0.32133926  0.59139065  0.73110583     0.13500
H1357       H  0.32662278  0.58556839  0.67694502     0.16100
C1358       C  0.32322639  0.62082319  0.74560077    -0.31500
H1359       H  0.32759063  0.62031037  0.77298259     0.16100
H1360       H  0.41445249  0.70950399  0.72778847     0.16100
H1361       H  0.29736455  0.72190332  0.60817732     0.16200
H1362       H  0.41736894  0.67193219  0.63118594     0.16100
C1363       C  0.32862871  0.83555359  0.58731797     0.86500
C1364       C  0.29851213  0.85881840  0.60515398    -0.53700
C1365       C  0.26576807  0.84111337  0.61549703     0.09400
C1366       C  0.26820138  0.80283555  0.60663633     0.20400
C1367       C  0.33361199  0.80264116  0.61503387    -0.54500
C1368       C  0.30204933  0.78644144  0.62468639     0.09500
C1369       C  0.30723030  0.82459251  0.55733161    -0.54000
C1370       C  0.27811429  0.80473792  0.56783313     0.10100
H1371       H  0.30327670  0.88485669  0.61042850     0.14600
H1372       H  0.24393298  0.78639159  0.61495387     0.00400
H1373       H  0.36023702  0.79194669  0.62521951     0.14900
H1374       H  0.31627646  0.82908921  0.53011052     0.14700
C1375       C  0.27703703  0.51384186  0.79093494     0.86500
C1376       C  0.24826218  0.50760789  0.76463899    -0.53700
C1377       C  0.23714497  0.53717530  0.74311419     0.09400
C1378       C  0.25582833  0.57080231  0.75050181     0.20400
C1379       C  0.30963732  0.53309644  0.76869321    -0.54500
C1380       C  0.29780585  0.56340654  0.74742994     0.09500
C1381       C  0.25927253  0.54268600  0.81016712    -0.54000
C1382       C  0.24868957  0.57226284  0.78885983     0.10100
H1383       H  0.23654571  0.48234318  0.76433373     0.14600
H1384       H  0.24654171  0.59596500  0.73454291     0.00400
H1385       H  0.33891091  0.52578040  0.77170932     0.14900
H1386       H  0.25633536  0.54038906  0.83830763     0.14700
C1387       C  0.16377817  0.83134818  0.67582741     0.30000
C1388       C  0.23016051  0.84944155  0.63823539     0.30000
C1389       C  0.16642371  0.82564328  0.63869757    -0.06200
C1390       C  0.17461413  0.87211766  0.67106589    -0.07000
C1391       C  0.19994995  0.81167866  0.68934989    -0.06800
C1392       C  0.19774554  0.83714729  0.61947412    -0.06200
C1393       C  0.20878048  0.88071947  0.65173020    -0.07000
C1394       C  0.23263694  0.82376424  0.67291246    -0.06800
C1395       C  0.19240579  0.83277934  0.58600393    -0.32200
N1396       N  0.16152147  0.81441034  0.58581927     0.14300
C1397       C  0.14505344  0.81047083  0.61783721    -0.32200
H1398       H  0.11962185  0.79804487  0.62569128     0.16200
C1399       C  0.21248860  0.91668162  0.64866325    -0.31200
N1400       N  0.18242454  0.93114653  0.66436718     0.13000
C1401       C  0.15976971  0.90451998  0.67854062    -0.31200
C1402       C  0.26138538  0.80676815  0.69203538    -0.31500
N1403       N  0.24791164  0.77953275  0.71503273     0.13500
H1404       H  0.29021076  0.81369585  0.68877989     0.16100
C1405       C  0.21062417  0.78097270  0.71090355    -0.31500
H1406       H  0.19341620  0.75934235  0.71913124     0.16100
H1407       H  0.13487676  0.90863283  0.69393581     0.16100
H1408       H  0.21028322  0.84176633  0.56373653     0.16200
H1409       H  0.23564808  0.93126614  0.63616163     0.16100
C1410       C  0.12139188  0.81194061  0.49899886     0.86500
C1411       C  0.08729026  0.79273275  0.51790381    -0.53700
C1412       C  0.09625341  0.76902356  0.54702531     0.09400
C1413       C  0.13770542  0.76637740  0.55373714     0.20400
C1414       C  0.14077246  0.82681665  0.52727529    -0.54500
C1415       C  0.14747432  0.80364674  0.55593439     0.09500
C1416       C  0.14876889  0.78208321  0.49074066    -0.54000
C1417       C  0.15697609  0.75765823  0.51950416     0.10100
H1418       H  0.05940481  0.79771684  0.50904163     0.14600
H1419       H  0.14491314  0.74838935  0.57802644     0.00400
H1420       H  0.14766449  0.85412070  0.52558382     0.14900
H1421       H  0.16286459  0.78165087  0.46576026     0.14700
C1422       C  0.31114849  0.74926498  0.79168850     0.86500
C1423       C  0.33325987  0.72221999  0.77279176    -0.53700
C1424       C  0.31232557  0.70596418  0.75208339     0.09400
C1425       C  0.26890162  0.71802487  0.75482882     0.20400
C1426       C  0.29102564  0.77429706  0.76255719    -0.54500
C1427       C  0.26854352  0.75859015  0.74328330     0.09500
C1428       C  0.27879566  0.73012175  0.81250149    -0.54000
C1429       C  0.25616105  0.71363907  0.79446206     0.10100
H1430       H  0.36340704  0.71955818  0.77261152     0.14600
H1431       H  0.25055287  0.70500990  0.73906764     0.00400
H1432       H  0.29230309  0.80257355  0.75799417     0.14900
H1433       H  0.27195546  0.73335119  0.83884409     0.14700
C1434       C  0.24936379  0.68434165  0.53983603     0.30000
C1435       C  0.18953087  0.73078827  0.52185010     0.30000
C1436       C  0.25426512  0.72392728  0.54130614    -0.06200
C1437       C  0.23524348  0.68717431  0.50008010    -0.07000
C1438       C  0.21175404  0.67623299  0.55880404    -0.06800
C1439       C  0.22392140  0.74629564  0.53230517    -0.06200
C1440       C  0.20430641  0.71151320  0.49227979    -0.07000
C1441       C  0.18254924  0.70059816  0.55089190    -0.06800
C1442       C  0.23217650  0.77961201  0.53569499    -0.32200
N1443       N  0.26646359  0.77902179  0.54800596     0.14300
C1444       C  0.28139392  0.74574054  0.54898879    -0.32200
H1445       H  0.30989869  0.73792411  0.55526283     0.16200
C1446       C  0.18960519  0.70927214  0.95926237    -0.31200
N1447       N  0.21046910  0.68466305  0.94557646     0.13000
C1448       C  0.23791477  0.67182958  0.96895258    -0.31200
C1449       C  0.15008664  0.68396641  0.55981599    -0.31500
N1450       N  0.15772383  0.65091786  0.57475090     0.13500
H1451       H  0.12331846  0.69362951  0.55088905     0.16100
C1452       C  0.19472630  0.64464919  0.56941879    -0.31500
H1453       H  0.20847845  0.61890587  0.57338719     0.16100
H1454       H  0.25841245  0.65141498  0.96498735     0.16100
H1455       H  0.21456538  0.80273248  0.52940973     0.16200
H1456       H  0.16583144  0.72364604  0.94694402     0.16100
C1457       C  0.22020048  0.69599462  0.81134460     0.30000
C1458       C  0.15583131  0.65909075  0.83040161     0.30000
C1459       C  0.21991225  0.65891566  0.80366449    -0.06200
C1460       C  0.20996381  0.68895228  0.85196366    -0.07000
C1461       C  0.18347886  0.71317116  0.79614938    -0.06800
C1462       C  0.18944149  0.64005443  0.81582786    -0.06200
C1463       C  0.17649137  0.67052267  0.86191002    -0.07000
C1464       C  0.15174473  0.69462885  0.80539554    -0.06800
C1465       C  0.19925835  0.60511032  0.81661090    -0.32200
N1466       N  0.23317459  0.60282293  0.80115730     0.14300
C1467       C  0.24643819  0.63552267  0.79413358    -0.32200
H1468       H  0.27370034  0.64219787  0.78454114     0.16200
C1469       C  0.17484871  0.66514460  0.89856039    -0.31200
N1470       N  0.20593792  0.67781350  0.91096369     0.13000
C1471       C  0.22711260  0.69205504  0.88293688    -0.31200
C1472       C  0.12199876  0.71565759  0.79087239    -0.31500
N1473       N  0.13466696  0.74510238  0.77033048     0.13500
H1474       H  0.09302631  0.70964291  0.79529336     0.16100
C1475       C  0.17148697  0.74536211  0.77763593    -0.31500
H1476       H  0.18811530  0.76818594  0.77232074     0.16100
H1477       H  0.25311072  0.70385718  0.88571195     0.16100
H1478       H  0.18229450  0.58321638  0.82681727     0.16200
H1479       H  0.15260545  0.65280731  0.91495019     0.16100
C1480       C  0.55824817  0.94223629  0.85891610     0.42500
N1481       N  0.50573772  0.92923040  0.88574328     0.01400
C1482       C  0.35967515  0.54709010  0.90472513    -0.06500
H1483       H  0.46051460  0.56052483  0.97208464     0.06900
C1484       C  0.45551244  0.94469091  0.04138102    -0.06900
Co1485     Co  0.45025641  0.98917280  0.87783915     0.78600
N1486       N  0.44872627  0.03003663  0.93475646    -0.26000
Co1487     Co  0.40459165  0.00046104  0.95448591     0.74100
C1488       C  0.46425931  0.47993105  0.04771628     0.42600
N1489       N  0.47323855  0.89530994  0.98254341     0.01000
N1490       N  0.43287221  0.98294168  0.00007855     0.01100
N1491       N  0.89148494  0.04279119  0.85082789    -0.46900
H1492       H  0.04340852  0.00297870  0.84578640     0.06800
N1493       N  0.46951685  0.02368428  0.90783653     0.01400
N1494       N  0.35972494  0.96894052  0.97284461     0.01100
C1495       C  0.30801231  0.44536073  0.97375763     0.42700
N1496       N  0.48782525  0.88294705  0.95547432    -0.25500
C1497       C  0.91951827  0.95928251  0.81435586    -0.06400
N1498       N  0.53744136  0.91574473  0.87493028    -0.46600
N1499       N  0.32660302  0.47560983  0.96784431    -0.46800
C1500       C  0.41614476  0.92317629  0.80917878     0.42500
N1501       N  0.39744342  0.01520815  0.87866843     0.01400
N1502       N  0.41998461  0.87007626  0.92867364    -0.25500
N1503       N  0.50254615  0.96342391  0.87620280    -0.26000
N1504       N  0.40127444  0.87506181  0.95710539     0.01000
H1505       H  0.42003849  0.83119713  0.89571612     0.06900
H1506       H  0.32983562  0.89179257  0.99289663     0.06900
N1507       N  0.37966267  0.01876966  0.90820582    -0.26100
N1508       N  0.43666984  0.94943297  0.01197835    -0.25700
N1509       N  0.43378580  0.91895355  0.86211424     0.01400
C1510       C  0.00133663  0.55694614  0.92962910     0.42800
C1511       C  0.51155334  0.85621008  0.96820574    -0.06900
N1512       N  0.36542526  0.93548968  0.98535485    -0.25700
H1513       H  0.46023331  0.91988995  0.05825430     0.06900
N1514       N  0.00509159  0.04055702  0.90035673    -0.46900
H1515       H  0.52291031  0.83663954  0.95345055     0.06900
C1516       C  0.37883448  0.82935699  0.94234356     0.42600
C1517       C  0.03771032  0.97597300  0.85610327    -0.06400
Co1518     Co  0.46215314  0.89981004  0.90768260     0.73800
N1519       N  0.48961015  0.88279034  0.01155315    -0.46600
C1520       C  0.86735207  0.56353473  0.86853823     0.42900
N1521       N  0.42475958  0.90043343  0.83844973    -0.46600
Co1522     Co  0.41863654  0.91328127  0.98481742     0.73900
C1523       C  0.33283443  0.91980000  0.98794200    -0.06900
C1524       C  0.46825228  0.55243669  0.94742249    -0.06500
N1525       N  0.43017445  0.95295984  0.85073781    -0.26000
N1526       N  0.45233050  0.50112930  0.01863347    -0.46800
H1527       H  0.34990598  0.55986564  0.92623355     0.06900
C1528       C  0.40966945  0.84102753  0.91884875    -0.06900
Cl1529     Cl  0.43356168  0.95072526  0.93092388    -0.49900
C1530       C  0.51037646  0.85436113  0.00692177     0.42600
H1531       H  0.91762083  0.98445887  0.79748778     0.06800
N1532       N  0.37513672  0.85171059  0.96570260    -0.46600
C1533       C  0.34831473  0.81361969  0.92764584    -0.05200
C1534       C  0.34483851  0.77737935  0.93742281    -0.05200
C1535       C  0.33888775  0.75665293  0.91211803    -0.23300
C1536       C  0.33822989  0.77206228  0.87684502     0.18900
C1537       C  0.33859943  0.80887471  0.86766725     0.16100
C1538       C  0.33950383  0.82951183  0.89368653    -0.18400
C1539       C  0.34158663  0.82424743  0.83259983    -0.20200
C1540       C  0.34016988  0.80358856  0.80671951    -0.12700
C1541       C  0.33325146  0.76761168  0.81553739     0.03900
C1542       C  0.33707706  0.75152151  0.85058882    -0.24900
H1543       H  0.35143572  0.76468883  0.96353282     0.09000
H1544       H  0.33809811  0.72845687  0.91970958     0.12600
H1545       H  0.34204184  0.85763676  0.88621123     0.12500
H1546       H  0.34461497  0.85226442  0.82518451     0.12300
H1547       H  0.34210127  0.81643905  0.77991756     0.12800
H1548       H  0.33468987  0.72338865  0.85773606     0.14800
C1549       C  0.11222227  0.84322347  0.47090208    -0.05200
C1550       C  0.09461275  0.87299787  0.48212341    -0.05200
C1551       C  0.09381922  0.90555459  0.46099728    -0.23300
C1552       C  0.10744480  0.90874960  0.42675440     0.18900
C1553       C  0.12241122  0.87881577  0.41374726     0.16100
C1554       C  0.12596171  0.84639390  0.43620247    -0.18400
C1555       C  0.13642390  0.88684390  0.87836219    -0.20200
C1556       C  0.12396759  0.91673796  0.85554635    -0.12700
C1557       C  0.09746554  0.93827046  0.36880520     0.03900
C1558       C  0.10115697  0.94025888  0.40398084    -0.24900
H1559       H  0.08381877  0.87154544  0.50864464     0.09000
H1560       H  0.08098259  0.92789011  0.47103695     0.12600
H1561       H  0.13855087  0.82397537  0.42632294     0.12500
H1562       H  0.15081793  0.86554528  0.86781444     0.12300
H1563       H  0.12636403  0.91654510  0.82778561     0.12800
H1564       H  0.08728694  0.96209665  0.41418995     0.14800
C1565       C  0.28982927  0.43708835  0.94323768    -0.05200
C1566       C  0.25229280  0.44653704  0.93748020    -0.05200
C1567       C  0.23947139  0.45283415  0.90345090    -0.23300
C1568       C  0.26501865  0.45267080  0.87520535     0.18900
C1569       C  0.30201323  0.44030087  0.88125164     0.16100
C1570       C  0.31339257  0.43012706  0.91531961    -0.18400
C1571       C  0.32853442  0.44373199  0.85374793    -0.20200
C1572       C  0.32044336  0.46528514  0.82223431    -0.12700
C1573       C  0.28479775  0.48112105  0.81743375     0.03900
C1574       C  0.25601559  0.47009053  0.84205490    -0.24900
H1575       H  0.23250293  0.95554067  0.95532820     0.09000
H1576       H  0.21092816  0.46229251  0.89916826     0.12600
H1577       H  0.34257589  0.42309398  0.91971863     0.12500
H1578       H  0.35655015  0.43321617  0.85815379     0.12300
H1579       H  0.34246215  0.47108407  0.80279835     0.12800
H1580       H  0.22792519  0.48100388  0.83780986     0.14800
C1581       C  0.49867027  0.82145045  0.52925923    -0.05200
C1582       C  0.47731973  0.79821377  0.51515892    -0.05200
C1583       C  0.43961671  0.79617111  0.52472301    -0.23300
C1584       C  0.42428674  0.81654702  0.54891445     0.18900
C1585       C  0.44771091  0.83263078  0.56887822     0.16100
C1586       C  0.48641390  0.82992072  0.56210057    -0.18400
C1587       C  0.43176618  0.85357835  0.59243361    -0.20200
C1588       C  0.39275887  0.85905215  0.59546141    -0.12700
C1589       C  0.36889048  0.84354805  0.57515737     0.03900
C1590       C  0.38601225  0.82149469  0.55259288    -0.24900
H1591       H  0.48950909  0.78833873  0.99634824     0.09000
H1592       H  0.42193646  0.78201088  0.51048892     0.12600
H1593       H  0.50425123  0.84503464  0.57522472     0.12500
H1594       H  0.44944362  0.86602170  0.60821925     0.12300
H1595       H  0.38116247  0.87364258  0.61503409     0.12800
H1596       H  0.36997268  0.80534170  0.53917133     0.14800
C1597       C  0.01513415  0.61990776  0.82296509    -0.05200
C1598       C  0.99412487  0.61281916  0.79503165    -0.05200
C1599       C  0.95577695  0.61364833  0.79642601    -0.23300
C1600       C  0.93683351  0.61731038  0.82733332     0.18900
C1601       C  0.95674880  0.62275058  0.85658108     0.16100
C1602       C  0.99598792  0.62567872  0.85383720    -0.18400
C1603       C  0.93711425  0.62195355  0.88849211    -0.20200
C1604       C  0.90100843  0.60914388  0.89242529    -0.12700
C1605       C  0.88395526  0.59854445  0.86395174     0.03900
C1606       C  0.89915651  0.60972138  0.83070835    -0.24900
H1607       H  0.00777711  0.60755867  0.77103114     0.09000
H1608       H  0.94116485  0.60852570  0.77409236     0.12600
H1609       H  0.01137953  0.63029455  0.87585994     0.12500
H1610       H  0.95105927  0.62686882  0.91123362     0.12300
H1611       H  0.39088102  0.60590611  0.91794008     0.12800
H1612       H  0.88894730  0.10632966  0.80605468     0.14800
C1613       C  0.45120454  0.48983878  0.58219033    -0.05200
C1614       C  0.46832100  0.51914271  0.59013948    -0.05200
C1615       C  0.44668210  0.54972055  0.59178402    -0.23300
C1616       C  0.40881012  0.55042496  0.58441980     0.18900
C1617       C  0.39139004  0.51874003  0.58330040     0.16100
C1618       C  0.41267475  0.48742427  0.58844696    -0.18400
C1619       C  0.35483709  0.51945543  0.57217014    -0.20200
C1620       C  0.33501655  0.55137614  0.56424426    -0.12700
C1621       C  0.35033230  0.58254155  0.57049386     0.03900
C1622       C  0.38862320  0.58211072  0.57672611    -0.24900
H1623       H  0.49832983  0.52048610  0.58841172     0.09000
H1624       H  0.45992508  0.57343887  0.59487903     0.12600
H1625       H  0.39947705  0.46644994  0.08174849     0.12500
H1626       H  0.34175829  0.49548933  0.56927359     0.12300
H1627       H  0.30618485  0.55119227  0.55725745     0.12800
H1628       H  0.40263214  0.60623828  0.57679169     0.14800
C1629       C  0.03085155  0.83456844  0.73694526    -0.05200
C1630       C  0.00233777  0.81366852  0.75400024    -0.05200
C1631       C  0.96807832  0.82841743  0.76234400    -0.23300
C1632       C  0.96212950  0.86467736  0.75553660     0.18900
C1633       C  0.99024075  0.88624647  0.73847030     0.16100
C1634       C  0.02425454  0.87103691  0.72862245    -0.18400
C1635       C  0.98460064  0.92276858  0.73370066    -0.20200
C1636       C  0.95449415  0.93740442  0.75077704    -0.12700
C1637       C  0.92963515  0.91537779  0.77190160     0.03900
C1638       C  0.93041572  0.87975638  0.76954976    -0.24900
H1639       H  0.00641502  0.78541543  0.76005447     0.09000
H1640       H  0.94691838  0.81157756  0.77564335     0.12600
H1641       H  0.04517629  0.88782342  0.71517181     0.12500
H1642       H  0.00532922  0.93982177  0.71998957     0.12300
H1643       H  0.95376558  0.96532421  0.75108270     0.12800
H1644       H  0.41281657  0.86208779  0.78792655     0.14800
C1645       C  0.04934647  0.58300562  0.57228076    -0.05200
C1646       C  0.02360935  0.60892187  0.55589643    -0.05200
C1647       C  0.01811879  0.61334223  0.52062919    -0.23300
C1648       C  0.03522050  0.59017305  0.50092219     0.18900
C1649       C  0.05576795  0.56035278  0.51721859     0.16100
C1650       C  0.06337562  0.55715538  0.55287949    -0.18400
C1651       C  0.06800134  0.53471196  0.49723614    -0.20200
C1652       C  0.05593829  0.53439928  0.96514433    -0.12700
C1653       C  0.03391263  0.56642193  0.44812504     0.03900
C1654       C  0.02876108  0.59489884  0.46553151    -0.24900
H1655       H  0.01080125  0.62938933  0.56841741     0.09000
H1656       H  0.00051105  0.63523640  0.50871469     0.12600
H1657       H  0.08297395  0.53685484  0.56448397     0.12500
H1658       H  0.08372234  0.51147326  0.50895794     0.12300
H1659       H  0.06823700  0.01962426  0.94429777     0.12800
H1660       H  0.50435576  0.61371699  0.45850235     0.14800
C1661       C  0.57556865  0.09448390  0.09846568     0.86500
C1662       C  0.59618115  0.06894363  0.12752992    -0.53700
C1663       C  0.62119156  0.08466160  0.14534570     0.09400
C1664       C  0.62189650  0.12555369  0.13090118     0.20400
C1665       C  0.55749706  0.12423672  0.11669559    -0.54500
C1666       C  0.58133791  0.14162348  0.13256577     0.09500
C1667       C  0.60688942  0.11241948  0.07486684    -0.54000
C1668       C  0.63153147  0.12818489  0.09141673     0.10100
H1669       H  0.59230173  0.04094294  0.13233113     0.14600
H1670       H  0.64037415  0.14018561  0.14447287     0.00400
H1671       H  0.52896505  0.13337614  0.11550434     0.14900
H1672       H  0.60847845  0.11411824  0.04671997     0.14700
C1673       C  0.57104246  0.17714137  0.14512561     0.30000
C1674       C  0.56793333  0.23967044  0.17032559     0.30000
C1675       C  0.57929078  0.21025650  0.11844285    -0.06200
C1676       C  0.53136231  0.18763032  0.16003213    -0.07000
C1677       C  0.59661865  0.18003787  0.17462432    -0.06800
C1678       C  0.57781704  0.24187562  0.13131643    -0.06200
C1679       C  0.52907526  0.21985301  0.17323647    -0.07000
C1680       C  0.59304753  0.21078711  0.18783156    -0.06800
C1681       C  0.57098844  0.26794710  0.10303170    -0.32200
N1682       N  0.57322230  0.25462567  0.07289510     0.14300
C1683       C  0.57361948  0.21921885  0.08306221    -0.32200
H1684       H  0.56846117  0.20090304  0.06583867     0.16200
C1685       C  0.98907425  0.22561568  0.17957462    -0.31200
N1686       N  0.96879222  0.19890727  0.17100629     0.13000
C1687       C  0.99378847  0.17626468  0.15815752    -0.31200
C1688       C  0.59484531  0.20182922  0.22297694    -0.31500
N1689       N  0.60521422  0.16820153  0.23168604     0.13500
H1690       H  0.57964204  0.21654760  0.24044866     0.16100
C1691       C  0.60537417  0.15449961  0.20222203    -0.31500
H1692       H  0.60376704  0.12760393  0.20107676     0.16100
H1693       H  0.98586908  0.15288450  0.14907461     0.16100
H1694       H  0.56612495  0.29555359  0.10411487     0.16200
H1695       H  0.97667551  0.24816026  0.18941165     0.16100
C1696       C  0.56837762  0.31597094  0.22390241     0.86500
C1697       C  0.60045643  0.33727732  0.20376526    -0.53700
C1698       C  0.62950361  0.31715696  0.19245244     0.09400
C1699       C  0.62116372  0.27689967  0.20174929     0.20400
C1700       C  0.55476982  0.29315125  0.19877384    -0.54500
C1701       C  0.58048017  0.27177049  0.18699112     0.09500
C1702       C  0.58821422  0.29109476  0.25349821    -0.54000
C1703       C  0.61690615  0.27099092  0.24293658     0.10100
H1704       H  0.60042355  0.36545073  0.19942388     0.14600
H1705       H  0.64301231  0.25968967  0.19185055     0.00400
H1706       H  0.52568512  0.29226341  0.19256506     0.14900
H1707       H  0.58047072  0.29004152  0.28086292     0.14700
C1708       C  0.70749442  0.04024465  0.21638195     0.30000
C1709       C  0.65065281  0.06447771  0.17166183     0.30000
C1710       C  0.71640665  0.06896190  0.18700872    -0.06200
C1711       C  0.69411784  0.01261002  0.19609889    -0.07000
C1712       C  0.67108923  0.05214932  0.23297929    -0.06800
C1713       C  0.68805074  0.08406228  0.16675312    -0.06200
C1714       C  0.66493159  0.02413474  0.17261236    -0.07000
C1715       C  0.64166352  0.06338020  0.21126096    -0.06800
C1716       C  0.70567730  0.10814988  0.14179227    -0.32200
N1717       N  0.74292934  0.10301278  0.14252679     0.14300
C1718       C  0.74929143  0.07683717  0.16915861    -0.32200
H1719       H  0.77517095  0.06212092  0.17402630     0.16200
C1720       C  0.65917454  0.49361023  0.15609626    -0.31200
N1721       N  0.68323606  0.46652232  0.17003137     0.13000
C1722       C  0.70525185  0.47867629  0.19240888    -0.31200
C1723       C  0.61194642  0.06960632  0.23372409    -0.31500
N1724       N  0.62393514  0.06635377  0.26701426     0.13500
H1725       H  0.58403172  0.07849845  0.22614990     0.16100
C1726       C  0.65962429  0.05394062  0.26659960    -0.31500
H1727       H  0.67690459  0.04839168  0.28897732     0.16100
H1728       H  0.72668577  0.46311444  0.20730449     0.16100
H1729       H  0.69317052  0.13012722  0.12688556     0.16200
H1730       H  0.63826869  0.49118060  0.13755473     0.16100
C1731       C  0.82539967  0.11028079  0.07862684     0.86500
C1732       C  0.84393403  0.13238149  0.10263963    -0.53700
C1733       C  0.82073649  0.15431625  0.11748662     0.09400
C1734       C  0.77943662  0.15410207  0.10335805     0.20400
C1735       C  0.79377804  0.09311828  0.10228736    -0.54500
C1736       C  0.76970791  0.11564562  0.11527895     0.09500
C1737       C  0.80540853  0.13611846  0.04946912    -0.54000
C1738       C  0.78025475  0.15945541  0.06131043     0.10100
H1739       H  0.87140316  0.12652806  0.11303016     0.14600
H1740       H  0.75860532  0.17160250  0.11428887     0.00400
H1741       H  0.79170514  0.06501630  0.11035620     0.14900
H1742       H  0.80908513  0.13432450  0.02204411     0.14700
C1743       C  0.56117716  0.12382825  0.31549175     0.86500
C1744       C  0.56462536  0.14978713  0.28133532    -0.53700
C1745       C  0.59827233  0.14930799  0.26558241     0.09400
C1746       C  0.62700773  0.12625035  0.28613218     0.20400
C1747       C  0.57723833  0.08820209  0.30687941    -0.54500
C1748       C  0.61121835  0.08989060  0.29051906     0.09500
C1749       C  0.59085512  0.13693715  0.33859022    -0.54000
C1750       C  0.62640333  0.13852380  0.32301904     0.10100
H1751       H  0.54156262  0.16589485  0.26922921     0.14600
H1752       H  0.65337761  0.12782210  0.27041820     0.00400
H1753       H  0.56070969  0.06514983  0.30867101     0.14900
H1754       H  0.58372327  0.14747899  0.36219815     0.14700
C1755       C  0.83054815  0.18910758  0.21717181     0.30000
C1756       C  0.83066365  0.16503105  0.15361640     0.30000
C1757       C  0.80752329  0.20896257  0.18841778    -0.06200
C1758       C  0.86957764  0.19083250  0.19674504    -0.07000
C1759       C  0.82173147  0.15011212  0.21831280    -0.06800
C1760       C  0.80371359  0.19497060  0.15846088    -0.06200
C1761       C  0.86996013  0.17857508  0.16400053    -0.07000
C1762       C  0.82176118  0.13810309  0.18635514    -0.06800
C1763       C  0.79472348  0.22227273  0.13303109    -0.32200
N1764       N  0.79765108  0.25215159  0.14489752     0.14300
C1765       C  0.80886009  0.24433222  0.17747098    -0.32200
H1766       H  0.82326137  0.26204448  0.19055396     0.16200
C1767       C  0.90726815  0.18120928  0.15132069    -0.31200
N1768       N  0.92884041  0.19504695  0.17388764     0.13000
C1769       C  0.90583181  0.20107396  0.20137330    -0.31200
C1770       C  0.82480374  0.10188630  0.19378307    -0.31500
N1771       N  0.82421101  0.09077355  0.22883643     0.13500
H1772       H  0.82843418  0.08471181  0.17463979     0.16100
C1773       C  0.82632179  0.12026888  0.24325590    -0.31500
H1774       H  0.82996837  0.11987153  0.27073782     0.16100
H1775       H  0.91500990  0.21098577  0.22383657     0.16100
H1776       H  0.79474847  0.22054311  0.10629158     0.16200
H1777       H  0.91791086  0.17311021  0.12742707     0.16100
C1778       C  0.83277931  0.33227817  0.08834993     0.86500
C1779       C  0.80260675  0.35670284  0.10465133    -0.53700
C1780       C  0.76847736  0.34079830  0.11265867     0.09400
C1781       C  0.76969013  0.30276574  0.10308892     0.20400
C1782       C  0.83438168  0.29917345  0.11586691    -0.54500
C1783       C  0.80156229  0.28443911  0.12291570     0.09500
C1784       C  0.81351915  0.32204470  0.05666578    -0.54000
C1785       C  0.78222323  0.30428279  0.06490891     0.10100
H1786       H  0.80848660  0.38191832  0.11138888     0.14600
H1787       H  0.74440718  0.28735611  0.10981323     0.00400
H1788       H  0.85970229  0.28730838  0.12795090     0.14900
H1789       H  0.82590645  0.32466175  0.03055654     0.14700
C1790       C  0.77861846  0.01509323  0.29010164     0.86500
C1791       C  0.74973026  0.00845448  0.26408205    -0.53700
C1792       C  0.73922708  0.03759540  0.24167806     0.09400
C1793       C  0.75844527  0.07134112  0.24808768     0.20400
C1794       C  0.81162553  0.03319467  0.26746330    -0.54500
C1795       C  0.80031316  0.06318712  0.24533060     0.09500
C1796       C  0.76154416  0.04493924  0.30823326    -0.54000
C1797       C  0.75139182  0.07406349  0.28621040     0.10100
H1798       H  0.73742487  0.98329850  0.26461682     0.14600
H1799       H  0.74956564  0.09627366  0.23149619     0.00400
H1800       H  0.84076922  0.02552293  0.27093534     0.14900
H1801       H  0.75859931  0.04360752  0.33628390     0.14700
C1802       C  0.66669438  0.33206199  0.17365325     0.30000
C1803       C  0.73323480  0.34982010  0.13577319     0.30000
C1804       C  0.66887526  0.32721003  0.13625552    -0.06200
C1805       C  0.67817096  0.37250127  0.16950725    -0.07000
C1806       C  0.70282376  0.31173915  0.18653548    -0.06800
C1807       C  0.70028406  0.33855873  0.11696586    -0.06200
C1808       C  0.71234919  0.38103731  0.15004226    -0.07000
C1809       C  0.73553841  0.32368673  0.17007839    -0.06800
C1810       C  0.69471180  0.33460470  0.08340192    -0.32200
N1811       N  0.66357159  0.31664889  0.08322038     0.14300
C1812       C  0.64715961  0.31263739  0.11526421    -0.32200
H1813       H  0.62179635  0.30015119  0.12319294     0.16200
C1814       C  0.71608979  0.41700206  0.14719612    -0.31200
N1815       N  0.68604307  0.43135323  0.16306892     0.13000
C1816       C  0.66335110  0.40477467  0.17711465    -0.31200
C1817       C  0.76419653  0.30750488  0.18988748    -0.31500
N1818       N  0.75073670  0.28054545  0.21325673     0.13500
H1819       H  0.79303203  0.31447402  0.18665993     0.16100
C1820       C  0.71351625  0.28150673  0.20872394    -0.31500
H1821       H  0.69637450  0.25986161  0.21711962     0.16100
H1822       H  0.63831317  0.40888148  0.19230679     0.16100
H1823       H  0.71293319  0.34294174  0.06118944     0.16200
H1824       H  0.73907708  0.43169469  0.13448549     0.16100
C1825       C  0.62322539  0.31297760  0.99691175     0.86500
C1826       C  0.58937030  0.29369229  0.01633369    -0.53700
C1827       C  0.59869496  0.27027425  0.04556793     0.09400
C1828       C  0.64022236  0.26792046  0.05187933     0.20400
C1829       C  0.64284237  0.32824538  0.02475283    -0.54500
C1830       C  0.64988083  0.30535932  0.05350782     0.09500
C1831       C  0.65066006  0.28306177  0.98873187    -0.54000
C1832       C  0.65918446  0.25888321  0.01768086     0.10100
H1833       H  0.56136116  0.29837330  0.00769951     0.14600
H1834       H  0.64772296  0.25012475  0.07621064     0.00400
H1835       H  0.64943643  0.35565959  0.02279336     0.14900
H1836       H  0.66427111  0.28228009  0.96359057     0.14700
C1837       C  0.81546211  0.25015409  0.28890690     0.86500
C1838       C  0.83668592  0.22273809  0.26965893    -0.53700
C1839       C  0.81489800  0.20641498  0.24955825     0.09400
C1840       C  0.77174540  0.21913934  0.25312107     0.20400
C1841       C  0.79494041  0.27521442  0.25998592    -0.54500
C1842       C  0.77161275  0.25963171  0.24140364     0.09500
C1843       C  0.78347834  0.23123588  0.31044494    -0.54000
C1844       C  0.76002597  0.21511543  0.29288204     0.10100
H1845       H  0.86680082  0.21970544  0.26899294     0.14600
H1846       H  0.75264923  0.20626042  0.23793618     0.00400
H1847       H  0.79657379  0.30342178  0.25489279     0.14900
H1848       H  0.77790837  0.23391197  0.33713627     0.14700
C1849       C  0.75044444  0.18418271  0.03786424     0.30000
C1850       C  0.69129388  0.23146408  0.02011867     0.30000
C1851       C  0.75628810  0.22374610  0.03907826    -0.06200
C1852       C  0.73583901  0.18696534  0.99838360    -0.07000
C1853       C  0.71286080  0.17658859  0.05707969    -0.06800
C1854       C  0.72626626  0.24654787  0.03021814    -0.06200
C1855       C  0.70537046  0.21183353  0.99058448    -0.07000
C1856       C  0.68386601  0.20125627  0.04929885    -0.06800
C1857       C  0.73549721  0.27985511  0.03301523    -0.32200
N1858       N  0.77024166  0.27898293  0.04457843     0.14300
C1859       C  0.78418807  0.24523602  0.04615145    -0.32200
H1860       H  0.81227306  0.23665209  0.05338866     0.16200
C1861       C  0.69317318  0.21167113  0.45891203    -0.31200
N1862       N  0.71425671  0.18756271  0.44473173     0.13000
C1863       C  0.74141719  0.17415110  0.46827836    -0.31200
C1864       C  0.65123016  0.18444537  0.05775937    -0.31500
N1865       N  0.65859948  0.15111490  0.07234759     0.13500
H1866       H  0.62465230  0.19421813  0.04843958     0.16100
C1867       C  0.69563409  0.14499431  0.06721320    -0.31500
H1868       H  0.70937015  0.11924131  0.07099142     0.16100
H1869       H  0.76194903  0.15386046  0.46403152     0.16100
H1870       H  0.71795068  0.30313120  0.02731677     0.16200
H1871       H  0.66943856  0.22620649  0.44669714     0.16100
C1872       C  0.72423572  0.19783363  0.31018445     0.30000
C1873       C  0.65998562  0.16108661  0.32958514     0.30000
C1874       C  0.72398176  0.16058456  0.30292647    -0.06200
C1875       C  0.71392738  0.19144782  0.35084600    -0.07000
C1876       C  0.68761034  0.21478762  0.29470659    -0.06800
C1877       C  0.69361784  0.14179600  0.31539654    -0.06200
C1878       C  0.68045135  0.17308095  0.36092332    -0.07000
C1879       C  0.65595195  0.19625672  0.30410017    -0.06800
C1880       C  0.70285584  0.10699800  0.31488149    -0.32200
N1881       N  0.73597050  0.10494434  0.29791314     0.14300
C1882       C  0.74955385  0.13752714  0.29124327    -0.32200
H1883       H  0.77629293  0.14429220  0.28021376     0.16200
C1884       C  0.67863355  0.16815377  0.39757589    -0.31200
N1885       N  0.70959303  0.18108240  0.40995224     0.13000
C1886       C  0.73078902  0.19521302  0.38183908    -0.31200
C1887       C  0.62623224  0.21689741  0.28914397    -0.31500
N1888       N  0.63886473  0.24606404  0.26819400     0.13500
H1889       H  0.59727198  0.21094102  0.29374793     0.16100
C1890       C  0.67556666  0.24673153  0.27577824    -0.31500
H1891       H  0.69205472  0.26964557  0.27031731     0.16100
H1892       H  0.75661163  0.20733825  0.38454078     0.16100
H1893       H  0.68590903  0.08509094  0.32506429     0.16200
H1894       H  0.65644469  0.15575766  0.41399649     0.16100
C1895       C  0.06046408  0.44761933  0.36023803     0.42500
N1896       N  0.00712990  0.43263863  0.38422546     0.01400
C1897       C  0.85961025  0.04906197  0.40504730    -0.06500
H1898       H  0.95743236  0.06273004  0.47232530     0.06900
C1899       C  0.95610549  0.44587498  0.54119599    -0.06900
Co1900     Co  0.95037931  0.49142221  0.37675280     0.78600
N1901       N  0.94998377  0.53149428  0.43443793    -0.26000
Co1902     Co  0.90564386  0.50154786  0.45421471     0.74100
C1903       C  0.96378063  0.98018963  0.54840106     0.42600
N1904       N  0.97527988  0.39767771  0.48091920     0.01000
N1905       N  0.93407041  0.48392483  0.49947413     0.01100
N1906       N  0.38730895  0.53763344  0.35346642    -0.46900
H1907       H  0.53946978  0.50042033  0.34846112     0.06800
N1908       N  0.96961227  0.52560682  0.40665033     0.01400
N1909       N  0.86101227  0.46945868  0.47269748     0.01100
C1910       C  0.80673209  0.94860790  0.47479460     0.42700
N1911       N  0.98993881  0.38530538  0.45388230    -0.25500
C1912       C  0.41790465  0.45482914  0.31965593    -0.06400
N1913       N  0.03996176  0.42026675  0.37479381    -0.46600
N1914       N  0.82577754  0.97856253  0.46866015    -0.46800
C1915       C  0.91856084  0.42535776  0.30730487     0.42500
N1916       N  0.89732334  0.51674653  0.37837109     0.01400
N1917       N  0.92271872  0.37146893  0.42687262    -0.25500
N1918       N  0.00298915  0.46675484  0.37479304    -0.26000
N1919       N  0.90385352  0.37568853  0.45547388     0.01000
H1920       H  0.92616798  0.33156586  0.39493031     0.06900
H1921       H  0.83219691  0.39179697  0.49112009     0.06900
N1922       N  0.88005543  0.51990258  0.40825823    -0.26100
N1923       N  0.93764924  0.45043960  0.51152006    -0.25700
N1924       N  0.93535463  0.42121285  0.36051055     0.01400
C1925       C  0.50258924  0.05769203  0.42653255     0.42800
C1926       C  0.01359977  0.35855764  0.46683484    -0.06900
N1927       N  0.86704060  0.43588650  0.48456559    -0.25700
H1928       H  0.96115668  0.42112185  0.55803570     0.06900
N1929       N  0.50093335  0.53889760  0.40382939    -0.46900
H1930       H  0.02500544  0.33886882  0.45224735     0.06900
C1931       C  0.88509705  0.32780030  0.44172052     0.42600
C1932       C  0.53452744  0.47365831  0.36034199    -0.06400
Co1933     Co  0.96410133  0.40218718  0.40601367     0.73800
N1934       N  0.99172724  0.38547824  0.50994462    -0.46600
C1935       C  0.36951123  0.06493603  0.36820983     0.42900
N1936       N  0.92713623  0.40266888  0.33661377    -0.46600
Co1937     Co  0.92038354  0.41432358  0.48362350     0.73900
C1938       C  0.83466053  0.41988739  0.48714403    -0.06900
C1939       C  0.96625852  0.05450860  0.44796590    -0.06500
N1940       N  0.93116751  0.45521117  0.34924705    -0.26000
N1941       N  0.95147167  0.00207475  0.51981622    -0.46800
H1942       H  0.84977250  0.06167922  0.42664249     0.06900
C1943       C  0.91468713  0.34141011  0.41768394    -0.06900
Cl1944     Cl  0.93466207  0.45237951  0.42985910    -0.49900
C1945       C  0.01243601  0.35699836  0.50555870     0.42600
H1946       H  0.41589843  0.47985087  0.30253734     0.06800
N1947       N  0.87962215  0.35056000  0.46467489    -0.46600
C1948       C  0.85612036  0.30976215  0.42714782    -0.05200
C1949       C  0.85678863  0.27301484  0.43501087    -0.05200
C1950       C  0.85083826  0.25315822  0.40889080    -0.23300
C1951       C  0.84643730  0.27001115  0.37436458     0.18900
C1952       C  0.84361437  0.30696794  0.36713562     0.16100
C1953       C  0.84447788  0.32630737  0.39425670    -0.18400
C1954       C  0.84355178  0.32413221  0.33261713    -0.20200
C1955       C  0.84231934  0.30490134  0.30557384    -0.12700
C1956       C  0.83797760  0.26836403  0.31273065     0.03900
C1957       C  0.84465823  0.25084689  0.34692861    -0.24900
H1958       H  0.86605345  0.25973145  0.46010981     0.09000
H1959       H  0.85284733  0.22479989  0.41506255     0.12600
H1960       H  0.84431391  0.35473522  0.38804795     0.12500
H1961       H  0.84436615  0.35246505  0.32650895     0.12300
H1962       H  0.84254951  0.31927284  0.27934680     0.12800
H1963       H  0.84397245  0.22248598  0.35273929     0.14800
C1964       C  0.61354247  0.34422634  0.96886050    -0.05200
C1965       C  0.59513310  0.37357358  0.98024598    -0.05200
C1966       C  0.59385766  0.40630206  0.95941392    -0.23300
C1967       C  0.60791921  0.41009591  0.92528348     0.18900
C1968       C  0.62370879  0.38058080  0.91205974     0.16100
C1969       C  0.62770613  0.34801056  0.93425630    -0.18400
C1970       C  0.63269778  0.38379048  0.37638749    -0.20200
C1971       C  0.61932231  0.41347523  0.35380948    -0.12700
C1972       C  0.59778780  0.43982728  0.86750669     0.03900
C1973       C  0.60130965  0.44170149  0.90273127    -0.24900
H1974       H  0.58418416  0.37169888  0.00675174     0.09000
H1975       H  0.58041371  0.42829060  0.96960159     0.12600
H1976       H  0.64109300  0.32596772  0.92430456     0.12500
H1977       H  0.64461951  0.36154866  0.36561304     0.12300
H1978       H  0.61847102  0.41227011  0.32628290     0.12800
H1979       H  0.58689110  0.46319285  0.91306862     0.14800
C1980       C  0.78809147  0.94073143  0.44435507    -0.05200
C1981       C  0.75121220  0.95243340  0.43807676    -0.05200
C1982       C  0.73882325  0.95912989  0.40391770    -0.23300
C1983       C  0.76433119  0.95706617  0.37596627     0.18900
C1984       C  0.80068710  0.94305907  0.38247122     0.16100
C1985       C  0.81133477  0.93242653  0.41671534    -0.18400
C1986       C  0.82750858  0.94504963  0.35518769    -0.20200
C1987       C  0.82036121  0.96624453  0.32322745    -0.12700
C1988       C  0.78530361  0.98307833  0.31771903     0.03900
C1989       C  0.75606687  0.97384357  0.34243988    -0.24900
H1990       H  0.73381749  0.45225592  0.45459823     0.09000
H1991       H  0.71084723  0.97007370  0.39925258     0.12600
H1992       H  0.84011307  0.92392119  0.42142292     0.12500
H1993       H  0.85515616  0.93360409  0.35994795     0.12300
H1994       H  0.84259768  0.97087849  0.30383190     0.12800
H1995       H  0.72836949  0.98557716  0.33771656     0.14800
C1996       C  0.00469647  0.32424264  0.03547141    -0.05200
C1997       C  0.98635771  0.29755474  0.02351637    -0.05200
C1998       C  0.94925496  0.29207665  0.03403733    -0.23300
C1999       C  0.93170018  0.31269453  0.05693631     0.18900
C2000       C  0.95312058  0.33244865  0.07529932     0.16100
C2001       C  0.99183525  0.33294882  0.06805828    -0.18400
C2002       C  0.93491308  0.35416033  0.09701183    -0.20200
C2003       C  0.89565347  0.35756577  0.09891518    -0.12700
C2004       C  0.87396661  0.33899054  0.07948772     0.03900
C2005       C  0.89313318  0.31523613  0.06000360    -0.24900
H2006       H  0.99097518  0.29119150  0.49573390     0.09000
H2007       H  0.93329352  0.27538206  0.02095902     0.12600
H2008       H  0.00778543  0.35074885  0.07980310     0.12500
H2009       H  0.95099101  0.36929083  0.11166993     0.12300
H2010       H  0.88228466  0.37362276  0.11642494     0.12800
H2011       H  0.87817478  0.29721968  0.04776294     0.14800
C2012       C  0.51934408  0.12137052  0.32325792    -0.05200
C2013       C  0.49854099  0.11351972  0.29553231    -0.05200
C2014       C  0.46025846  0.11387290  0.29691101    -0.23300
C2015       C  0.44117900  0.11774446  0.32767253     0.18900
C2016       C  0.46086390  0.12366709  0.35686622     0.16100
C2017       C  0.50005456  0.12724109  0.35405634    -0.18400
C2018       C  0.44109588  0.12263391  0.38876028    -0.20200
C2019       C  0.40518504  0.10927152  0.39268427    -0.12700
C2020       C  0.38804371  0.09904923  0.36405083     0.03900
C2021       C  0.40356826  0.11001916  0.33090594    -0.24900
H2022       H  0.51229116  0.10807971  0.27163570     0.09000
H2023       H  0.44582012  0.10829116  0.27466316     0.12600
H2024       H  0.51531676  0.13231077  0.37597879     0.12500
H2025       H  0.45485260  0.12777440  0.41150500     0.12300
H2026       H  0.89203726  0.10717393  0.41915798     0.12800
H2027       H  0.38623759  0.59877832  0.30593452     0.14800
C2028       C  0.95303019  0.98947787  0.07853682    -0.05200
C2029       C  0.96971341  0.01892012  0.08667185    -0.05200
C2030       C  0.94786145  0.04946061  0.08778399    -0.23300
C2031       C  0.91004016  0.04993016  0.08033042     0.18900
C2032       C  0.89286185  0.01813430  0.07914079     0.16100
C2033       C  0.91439655  0.98691041  0.08409490    -0.18400
C2034       C  0.85614744  0.01868190  0.06844106    -0.20200
C2035       C  0.83598585  0.05050790  0.06104902    -0.12700
C2036       C  0.85122281  0.08176266  0.06724229     0.03900
C2037       C  0.88957625  0.08152276  0.07301585    -0.24900
H2038       H  0.99972054  0.02045057  0.08530146     0.09000
H2039       H  0.96090406  0.07327547  0.09089493     0.12600
H2040       H  0.89930259  0.96572758  0.58267746     0.12500
H2041       H  0.84316799  0.99465958  0.06556717     0.12300
H2042       H  0.80705747  0.05015760  0.05442690     0.12800
H2043       H  0.90339978  0.10571814  0.07323592     0.14800
C2044       C  0.53420520  0.33403043  0.23765226    -0.05200
C2045       C  0.50671844  0.31208346  0.25515236    -0.05200
C2046       C  0.47261792  0.32571230  0.26529043    -0.23300
C2047       C  0.46578820  0.36184051  0.25984816     0.18900
C2048       C  0.49290111  0.38448358  0.24252724     0.16100
C2049       C  0.52680513  0.37041716  0.23085617    -0.18400
C2050       C  0.48637581  0.42081778  0.23915293    -0.20200
C2051       C  0.45618741  0.43416178  0.25719119    -0.12700
C2052       C  0.43193418  0.41110295  0.27791418     0.03900
C2053       C  0.43411440  0.37559429  0.27517475    -0.24900
H2054       H  0.51147349  0.28385832  0.26019823     0.09000
H2055       H  0.45227810  0.30805456  0.27878369     0.12600
H2056       H  0.54710485  0.38786354  0.21724416     0.12500
H2057       H  0.50636088  0.43869862  0.22544443     0.12300
H2058       H  0.45462082  0.46198083  0.25803094     0.12800
H2059       H  0.91442349  0.36438714  0.28635468     0.14800
C2060       C  0.55013340  0.07950447  0.07475809    -0.05200
C2061       C  0.51726201  0.09890176  0.06385581    -0.05200
C2062       C  0.50779951  0.10421999  0.02936159    -0.23300
C2063       C  0.52832484  0.08705876  0.00591206     0.18900
C2064       C  0.55520227  0.06057836  0.01797777     0.16100
C2065       C  0.56623565  0.05683782  0.05274179    -0.18400
C2066       C  0.57059049  0.03930264  0.99464257    -0.20200
C2067       C  0.55803631  0.03546109  0.46064418    -0.12700
C2068       C  0.52929428  0.06896371  0.94997965     0.03900
C2069       C  0.51985617  0.09407699  0.97098241    -0.24900
H2070       H  0.50035043  0.11342815  0.08023087     0.09000
H2071       H  0.48461503  0.12215099  0.02096784     0.12600
H2072       H  0.59040447  0.04019856  0.06097617     0.12500
H2073       H  0.59104434  0.01854819  0.00321507     0.12300
H2074       H  0.56113553  0.51552106  0.44898745     0.12800
H2075       H  0.00731874  0.11551643  0.95490092     0.14800
C2076       C  0.57705196  0.09579313  0.59510553     0.86500
C2077       C  0.59751691  0.06952527  0.62392084    -0.53700
C2078       C  0.62161521  0.08506014  0.64308791     0.09400
C2079       C  0.62181778  0.12612072  0.62979176     0.20400
C2080       C  0.55775670  0.12392785  0.61468900    -0.54500
C2081       C  0.58094558  0.14173982  0.63087403     0.09500
C2082       C  0.60870884  0.11448528  0.57285419    -0.54000
C2083       C  0.63261508  0.12963239  0.59059474     0.10100
H2084       H  0.59423392  0.04146285  0.62762879     0.14600
H2085       H  0.63966636  0.14041592  0.64428448     0.00400
H2086       H  0.52838125  0.13044808  0.61495750     0.14900
H2087       H  0.61126785  0.11688295  0.54465428     0.14700
C2088       C  0.57006445  0.17710300  0.64367836     0.30000
C2089       C  0.56706628  0.23909499  0.66985663     0.30000
C2090       C  0.57908911  0.21044405  0.61756922    -0.06200
C2091       C  0.53030882  0.18782841  0.65800539    -0.07000
C2092       C  0.59479271  0.17922487  0.67391628    -0.06800
C2093       C  0.57757433  0.24181227  0.63097011    -0.06200
C2094       C  0.52813863  0.21975462  0.67177291    -0.07000
C2095       C  0.59169990  0.20985236  0.68745716    -0.06800
C2096       C  0.57034387  0.26822109  0.60308327    -0.32200
N2097       N  0.57253584  0.25549061  0.57264759     0.14300
C2098       C  0.57308232  0.22002038  0.58227331    -0.32200
H2099       H  0.56819729  0.20202095  0.56463822     0.16200
C2100       C  0.99045371  0.22625026  0.68113291    -0.31200
N2101       N  0.97003924  0.19922930  0.67352080     0.13000
C2102       C  0.99479044  0.17676505  0.65996432    -0.31200
C2103       C  0.59277475  0.20044958  0.72263955    -0.31500
N2104       N  0.60197928  0.16652890  0.73104026     0.13500
H2105       H  0.57763216  0.21518698  0.74010052     0.16100
C2106       C  0.60181295  0.15316093  0.70145244    -0.31500
H2107       H  0.59822611  0.12655301  0.70005980     0.16100
H2108       H  0.98670193  0.15322152  0.65128396     0.16100
H2109       H  0.56531117  0.29570859  0.60466631     0.16200
H2110       H  0.97828392  0.24874376  0.69121453     0.16100
C2111       C  0.56557824  0.31543613  0.72343579     0.86500
C2112       C  0.59800925  0.33660030  0.70402111    -0.53700
C2113       C  0.62733041  0.31650330  0.69344450     0.09400
C2114       C  0.61902817  0.27621111  0.70254705     0.20400
C2115       C  0.55276155  0.29252320  0.69806451    -0.54500
C2116       C  0.57887129  0.27104305  0.68698499     0.09500
C2117       C  0.58464793  0.29047564  0.75357127    -0.54000
C2118       C  0.61366609  0.27024297  0.74359909     0.10100
H2119       H  0.59798580  0.36475295  0.69935588     0.14600
H2120       H  0.64112879  0.25898503  0.69307516     0.00400
H2121       H  0.52392127  0.29176048  0.69105610     0.14900
H2122       H  0.57616780  0.28947700  0.78076045     0.14700
C2123       C  0.70796208  0.04104988  0.71443959     0.30000
C2124       C  0.65118841  0.06507001  0.66949910     0.30000
C2125       C  0.71674837  0.07003376  0.68539223    -0.06200
C2126       C  0.69510019  0.01347249  0.69371864    -0.07000
C2127       C  0.67133765  0.05263535  0.73096091    -0.06800
C2128       C  0.68854881  0.08498887  0.66488729    -0.06200
C2129       C  0.66596631  0.02490695  0.67015515    -0.07000
C2130       C  0.64194262  0.06367296  0.70915167    -0.06800
C2131       C  0.70614807  0.11082854  0.64159665    -0.32200
N2132       N  0.74353006  0.10644985  0.64304005     0.14300
C2133       C  0.74980466  0.07949984  0.66890424    -0.32200
H2134       H  0.77589640  0.06524853  0.67401629     0.16200
C2135       C  0.65703051  0.49334514  0.65995070    -0.31200
N2136       N  0.68044475  0.46599344  0.67440408     0.13000
C2137       C  0.70302144  0.47810660  0.69633089    -0.31200
C2138       C  0.61181632  0.06862811  0.73168478    -0.31500
N2139       N  0.62341561  0.06515340  0.76513707     0.13500
H2140       H  0.58354659  0.07607864  0.72421452     0.16100
C2141       C  0.65943343  0.05362712  0.76467211    -0.31500
H2142       H  0.67650029  0.04779888  0.78717607     0.16100
H2143       H  0.72450710  0.46245783  0.71107568     0.16100
H2144       H  0.69348973  0.13345563  0.62767554     0.16200
H2145       H  0.63625016  0.49108573  0.64123857     0.16100
C2146       C  0.82707724  0.11430849  0.58021230     0.86500
C2147       C  0.84518957  0.13647592  0.60430739    -0.53700
C2148       C  0.82167833  0.15816588  0.61912153     0.09400
C2149       C  0.78049061  0.15793532  0.60459285     0.20400
C2150       C  0.79525022  0.09706744  0.60354139    -0.54500
C2151       C  0.77078947  0.11945535  0.61633791     0.09500
C2152       C  0.80722293  0.13996903  0.55087137    -0.54000
C2153       C  0.78162438  0.16306486  0.56247541     0.10100
H2154       H  0.87255196  0.13072266  0.61490870     0.14600
H2155       H  0.75964642  0.17556349  0.61536709     0.00400
H2156       H  0.79319693  0.06892793  0.61133647     0.14900
H2157       H  0.81109639  0.13802671  0.52349433     0.14700
C2158       C  0.55862993  0.12062781  0.81439381     0.86500
C2159       C  0.56143024  0.14678497  0.78032369    -0.53700
C2160       C  0.59519510  0.14738489  0.76477846     0.09400
C2161       C  0.62444084  0.12482994  0.78510240     0.20400
C2162       C  0.57571412  0.08539809  0.80542716    -0.54500
C2163       C  0.60973534  0.08806112  0.78902712     0.09500
C2164       C  0.58785735  0.13429245  0.83762221    -0.54000
C2165       C  0.62340107  0.13673261  0.82212191     0.10100
H2166       H  0.53800552  0.16227961  0.76815267     0.14600
H2167       H  0.65081334  0.12718788  0.76940426     0.00400
H2168       H  0.55983651  0.06196865  0.80699639     0.14900
H2169       H  0.58041384  0.14438011  0.86141639     0.14700
C2170       C  0.83089202  0.19152454  0.71963277     0.30000
C2171       C  0.83127773  0.16825545  0.65562882     0.30000
C2172       C  0.80956121  0.21274160  0.69031711    -0.06200
C2173       C  0.87056113  0.19200559  0.69999733    -0.07000
C2174       C  0.82070859  0.15296500  0.72000760    -0.06800
C2175       C  0.80545824  0.19894602  0.66028188    -0.06200
C2176       C  0.87088419  0.18014189  0.66699795    -0.07000
C2177       C  0.82085836  0.14142800  0.68780521    -0.06800
C2178       C  0.79752711  0.22633940  0.63483673    -0.32200
N2179       N  0.80161784  0.25607064  0.64657149     0.14300
C2180       C  0.81216621  0.24817356  0.67947402    -0.32200
H2181       H  0.82545994  0.26591839  0.69337796     0.16200
C2182       C  0.90815493  0.18226961  0.65433674    -0.31200
N2183       N  0.93007621  0.19537490  0.67706483     0.13000
C2184       C  0.90719457  0.20152771  0.70471084    -0.31200
C2185       C  0.82415078  0.10524411  0.69469608    -0.31500
N2186       N  0.82315791  0.09360426  0.72958879     0.13500
H2187       H  0.82857442  0.08845630  0.67527825     0.16100
C2188       C  0.82500007  0.12275338  0.74458132    -0.31500
H2189       H  0.82884761  0.12187974  0.77210380     0.16100
H2190       H  0.91653725  0.21139453  0.72714735     0.16100
H2191       H  0.79655912  0.22449041  0.60813389     0.16200
H2192       H  0.91848249  0.17467928  0.63011737     0.16100
C2193       C  0.82986742  0.33795656  0.58790348     0.86500
C2194       C  0.79932461  0.36101899  0.60546754    -0.53700
C2195       C  0.76659999  0.34314035  0.61531963     0.09400
C2196       C  0.76930536  0.30504519  0.60610434     0.20400
C2197       C  0.83454398  0.30501390  0.61556648    -0.54500
C2198       C  0.80293130  0.28867620  0.62460032     0.09500
C2199       C  0.80921604  0.32692472  0.55747892    -0.54000
C2200       C  0.77987120  0.30712902  0.56742843     0.10100
H2201       H  0.80389886  0.38694280  0.61115078     0.14600
H2202       H  0.74493981  0.28859350  0.61396487     0.00400
H2203       H  0.86100920  0.29445188  0.62623178     0.14900
H2204       H  0.81908873  0.33116968  0.53048262     0.14700
C2205       C  0.77893593  0.01535426  0.78808277     0.86500
C2206       C  0.75079068  0.00894898  0.76136751    -0.53700
C2207       C  0.73949241  0.03845868  0.73996592     0.09400
C2208       C  0.75755231  0.07230178  0.74777152     0.20400
C2209       C  0.81157960  0.03505884  0.76645947    -0.54500
C2210       C  0.79969087  0.06536629  0.74529664     0.09500
C2211       C  0.76044411  0.04386534  0.80736770    -0.54000
C2212       C  0.74980407  0.07349999  0.78612112     0.10100
H2213       H  0.73940310  0.98358857  0.76083701     0.14600
H2214       H  0.74812547  0.09739880  0.73177529     0.00400
H2215       H  0.84087307  0.02804552  0.76985705     0.14900
H2216       H  0.75718679  0.04135110  0.83550372     0.14700
C2217       C  0.66446098  0.33183502  0.67523628     0.30000
C2218       C  0.73092693  0.35088449  0.63816993     0.30000
C2219       C  0.66702800  0.32774506  0.63764203    -0.06200
C2220       C  0.67558307  0.37231102  0.67210099    -0.07000
C2221       C  0.70052102  0.31149913  0.68798966    -0.06800
C2222       C  0.69843990  0.33969393  0.61873033    -0.06200
C2223       C  0.70979554  0.38140250  0.65302255    -0.07000
C2224       C  0.73319322  0.32403618  0.67198451    -0.06800
C2225       C  0.69358506  0.33557003  0.58511642    -0.32200
N2226       N  0.66288250  0.31705526  0.58453476     0.14300
C2227       C  0.64614986  0.31262745  0.61643121    -0.32200
H2228       H  0.62117280  0.29941229  0.62414655     0.16200
C2229       C  0.71351154  0.41718785  0.65095530    -0.31200
N2230       N  0.68337476  0.43104181  0.66701599     0.13000
C2231       C  0.66066659  0.40426535  0.68045743    -0.31200
C2232       C  0.76176895  0.30768797  0.69165597    -0.31500
N2233       N  0.74842749  0.28017414  0.71433896     0.13500
H2234       H  0.79038773  0.31533413  0.68912107     0.16100
C2235       C  0.71125086  0.28103360  0.70978988    -0.31500
H2236       H  0.69418229  0.25935815  0.71827664     0.16100
H2237       H  0.63559033  0.40802228  0.69572796     0.16100
H2238       H  0.71185881  0.34443723  0.56310422     0.16200
H2239       H  0.73649992  0.43212831  0.63860763     0.16100
C2240       C  0.62338323  0.31436548  0.49763281     0.86500
C2241       C  0.58923950  0.29524823  0.51663780    -0.53700
C2242       C  0.59823273  0.27147130  0.54573012     0.09400
C2243       C  0.63967514  0.26883706  0.55242160     0.20400
C2244       C  0.64282623  0.32925462  0.52583862    -0.54500
C2245       C  0.64944877  0.30612381  0.55452485     0.09500
C2246       C  0.65072327  0.28444219  0.48942968    -0.54000
C2247       C  0.65895555  0.26007509  0.51823964     0.10100
H2248       H  0.56130415  0.30043152  0.50792953     0.14600
H2249       H  0.64687627  0.25084703  0.57671543     0.00400
H2250       H  0.64968037  0.35656740  0.52416063     0.14900
H2251       H  0.66483333  0.28396553  0.46446166     0.14700
C2252       C  0.81069287  0.25160614  0.79181481     0.86500
C2253       C  0.83384917  0.22486877  0.77299610    -0.53700
C2254       C  0.81365247  0.20805896  0.75198344     0.09400
C2255       C  0.77000097  0.21926002  0.75449981     0.20400
C2256       C  0.79054389  0.27608709  0.76237051    -0.54500
C2257       C  0.76886687  0.25978715  0.74293292     0.09500
C2258       C  0.77859795  0.23178577  0.81222482    -0.54000
C2259       C  0.75679188  0.21471512  0.79400131     0.10100
H2260       H  0.86402181  0.22291707  0.77301700     0.14600
H2261       H  0.75217608  0.20590332  0.73857423     0.00400
H2262       H  0.79119902  0.30436919  0.75747387     0.14900
H2263       H  0.77119936  0.23511054  0.83845577     0.14700
C2264       C  0.75146654  0.18698537  0.53869892     0.30000
C2265       C  0.69158136  0.23328561  0.52068364     0.30000
C2266       C  0.75629127  0.22654385  0.54022284    -0.06200
C2267       C  0.73737433  0.18976075  0.49896172    -0.07000
C2268       C  0.71386786  0.17869904  0.55760533    -0.06800
C2269       C  0.72596631  0.24888654  0.53116857    -0.06200
C2270       C  0.70641500  0.21405197  0.49111242    -0.07000
C2271       C  0.68456790  0.20299530  0.54971183    -0.06800
C2272       C  0.73420945  0.28218242  0.53477438    -0.32200
N2273       N  0.76843197  0.28154966  0.54730390     0.14300
C2274       C  0.78332006  0.24824193  0.54835009    -0.32200
H2275       H  0.81158973  0.24022184  0.55535546     0.16200
C2276       C  0.69140326  0.20913754  0.95875557    -0.31200
N2277       N  0.71149625  0.18420262  0.94487100     0.13000
C2278       C  0.73882565  0.17065792  0.96815166    -0.31200
C2279       C  0.65216396  0.18602969  0.55817317    -0.31500
N2280       N  0.65990452  0.15285815  0.57275164     0.13500
H2281       H  0.62545845  0.19556255  0.54896770     0.16100
C2282       C  0.69700034  0.14693709  0.56769487    -0.31500
H2283       H  0.71094054  0.12127721  0.57141830     0.16100
H2284       H  0.75878727  0.14987152  0.96400697     0.16100
H2285       H  0.71658859  0.30531390  0.52862157     0.16200
H2286       H  0.66785500  0.22404008  0.94658786     0.16100
C2287       C  0.72088643  0.19674253  0.81051544     0.30000
C2288       C  0.65672871  0.15944796  0.82920587     0.30000
C2289       C  0.72087041  0.15970580  0.80263358    -0.06200
C2290       C  0.71051905  0.18951420  0.85109795    -0.07000
C2291       C  0.68415395  0.21379031  0.79526447    -0.06800
C2292       C  0.69053059  0.14062395  0.81467596    -0.06200
C2293       C  0.67713529  0.17090664  0.86090181    -0.07000
C2294       C  0.65254820  0.19500805  0.80429398    -0.06800
C2295       C  0.70035255  0.10581108  0.81459299    -0.32200
N2296       N  0.73402473  0.10392671  0.79855994     0.14300
C2297       C  0.74716719  0.13670442  0.79201243    -0.32200
H2298       H  0.77413731  0.14369752  0.78186829     0.16200
C2299       C  0.67555932  0.16525994  0.89760450    -0.31200
N2300       N  0.70665108  0.17788065  0.91009909     0.13000
C2301       C  0.72770848  0.19239282  0.88211500    -0.31200
C2302       C  0.62275335  0.21572408  0.78950989    -0.31500
N2303       N  0.63530076  0.24531210  0.76915022     0.13500
H2304       H  0.59383966  0.20940501  0.79369449     0.16100
C2305       C  0.67201779  0.24590253  0.77669705    -0.31500
H2306       H  0.68849041  0.26883613  0.77131800     0.16100
H2307       H  0.75380808  0.20400253  0.88494641     0.16100
H2308       H  0.68350441  0.08376241  0.82454370     0.16200
H2309       H  0.65345344  0.15262508  0.91395127     0.16100
C2310       C  0.05772713  0.44003175  0.86010032     0.42500
N2311       N  0.00519183  0.42667712  0.88680372     0.01400
C2312       C  0.86113417  0.04825932  0.90066018    -0.06500
H2313       H  0.96015663  0.06174269  0.97002876     0.06900
C2314       C  0.95440353  0.44472626  0.04260203    -0.06900
Co2315     Co  0.94976829  0.48667844  0.87826870     0.78600
N2316       N  0.94938103  0.52822837  0.93441672    -0.26000
Co2317     Co  0.90481198  0.49913484  0.95466537     0.74100
C2318       C  0.96488759  0.98038457  0.04489135     0.42600
N2319       N  0.97165436  0.39325206  0.98416578     0.01000
N2320       N  0.93333026  0.48202918  0.99984911     0.01100
N2321       N  0.38838220  0.54000343  0.85458447    -0.46900
H2322       H  0.53927355  0.50030586  0.84738089     0.06800
N2323       N  0.96986578  0.52103756  0.90764296     0.01400
N2324       N  0.85964544  0.46849195  0.97401176     0.01100
C2325       C  0.81024284  0.94553043  0.96940069     0.42700
N2326       N  0.98697820  0.38122236  0.95717847    -0.25500
C2327       C  0.41752293  0.45622762  0.81823385    -0.06400
N2328       N  0.03732676  0.41338359  0.87662854    -0.46600
N2329       N  0.82833921  0.97607584  0.96313858    -0.46800
C2330       C  0.91604698  0.42095678  0.80991217     0.42500
N2331       N  0.89717733  0.51307041  0.87907663     0.01400
N2332       N  0.91847683  0.36813823  0.93053898    -0.25500
N2333       N  0.00170634  0.46076348  0.87660718    -0.26000
N2334       N  0.89991271  0.37357678  0.95896168     0.01000
H2335       H  0.91820050  0.32837173  0.89851598     0.06900
H2336       H  0.82833896  0.39195360  0.99456919     0.06900
N2337       N  0.87933271  0.51645521  0.90859573    -0.26100
N2338       N  0.93613550  0.44870792  0.01285599    -0.25700
N2339       N  0.93293097  0.41648291  0.86316662     0.01400
C2340       C  0.49847559  0.06192044  0.92913119     0.42800
C2341       C  0.01286578  0.35644484  0.96997656    -0.06900
N2342       N  0.86477772  0.43498963  0.98652860    -0.25700
H2343       H  0.95846145  0.42033847  0.06030818     0.06900
N2344       N  0.50224018  0.53844958  0.90134234    -0.46900
H2345       H  0.02640709  0.33777847  0.95530496     0.06900
C2346       C  0.87767123  0.32706603  0.94560833     0.42600
C2347       C  0.53403071  0.47343526  0.85865867    -0.06400
Co2348     Co  0.96125301  0.39748249  0.90908442     0.73800
N2349       N  0.98874200  0.38225545  0.01311642    -0.46600
C2350       C  0.36834968  0.06610304  0.86793170     0.42900
N2351       N  0.92428685  0.39807468  0.83926249    -0.46600
Co2352     Co  0.91758186  0.41207680  0.98617790     0.73900
C2353       C  0.83183114  0.41991644  0.98966102    -0.06900
C2354       C  0.96904147  0.05407869  0.94543851    -0.06500
N2355       N  0.92933974  0.45048567  0.85174415    -0.26000
N2356       N  0.95200011  0.00244825  0.01664320    -0.46800
H2357       H  0.85043568  0.06042902  0.92227713     0.06900
C2358       C  0.90797411  0.33876590  0.92138061    -0.06900
Cl2359     Cl  0.93299686  0.44881132  0.93176673    -0.49900
C2360       C  0.01215233  0.35549103  0.00859526     0.42600
H2361       H  0.41622095  0.48139595  0.80131167     0.06800
N2362       N  0.87405977  0.35007169  0.96834330    -0.46600
C2363       C  0.84705684  0.31063655  0.93175618    -0.05200
C2364       C  0.84630460  0.27397051  0.93954196    -0.05200
C2365       C  0.84053456  0.25451931  0.91311676    -0.23300
C2366       C  0.83725288  0.27173485  0.87860141     0.18900
C2367       C  0.83453373  0.30871406  0.87166659     0.16100
C2368       C  0.83551127  0.32773048  0.89904164    -0.18400
C2369       C  0.83479347  0.32615838  0.83723691    -0.20200
C2370       C  0.83440702  0.30715799  0.80991559    -0.12700
C2371       C  0.83112064  0.27044533  0.81660140     0.03900
C2372       C  0.83683547  0.25282913  0.85090607    -0.24900
H2373       H  0.85500325  0.26031530  0.96469933     0.09000
H2374       H  0.84208734  0.22613850  0.91907246     0.12600
H2375       H  0.83606732  0.35613566  0.89308644     0.12500
H2376       H  0.83537612  0.35451808  0.83140442     0.12300
H2377       H  0.83489588  0.32177634  0.78379569     0.12800
H2378       H  0.83664419  0.22443048  0.85645339     0.14800
C2379       C  0.61433457  0.34564974  0.46947698    -0.05200
C2380       C  0.59694314  0.37556208  0.48063423    -0.05200
C2381       C  0.59660090  0.40813553  0.45954236    -0.23300
C2382       C  0.61015631  0.41118002  0.42529193     0.18900
C2383       C  0.62468127  0.38108324  0.41227795     0.16100
C2384       C  0.62807063  0.34868356  0.43478144    -0.18400
C2385       C  0.63268722  0.38402104  0.87627823    -0.20200
C2386       C  0.61933276  0.41377864  0.85379478    -0.12700
C2387       C  0.59874207  0.44009583  0.36757295     0.03900
C2388       C  0.60379069  0.44261182  0.40241269    -0.24900
H2389       H  0.58609472  0.37420641  0.50712372     0.09000
H2390       H  0.58399620  0.43058120  0.46955764     0.12600
H2391       H  0.64037778  0.32614610  0.42491152     0.12500
H2392       H  0.64556675  0.36224144  0.86537972     0.12300
H2393       H  0.61945202  0.41303565  0.82612811     0.12800
H2394       H  0.59031182  0.46460927  0.41265120     0.14800
C2395       C  0.79180529  0.93669850  0.93926313    -0.05200
C2396       C  0.75421588  0.94607284  0.93368909    -0.05200
C2397       C  0.74127470  0.95258119  0.89971192    -0.23300
C2398       C  0.76680244  0.95281790  0.87141233     0.18900
C2399       C  0.80378799  0.94029258  0.87728341     0.16100
C2400       C  0.81518914  0.92966964  0.91127002    -0.18400
C2401       C  0.83036431  0.94428669  0.84983867    -0.20200
C2402       C  0.82233852  0.96650814  0.81871659    -0.12700
C2403       C  0.78672771  0.98246279  0.81422301     0.03900
C2404       C  0.75787645  0.97095926  0.83855034    -0.24900
H2405       H  0.73181304  0.45605112  0.95681343     0.09000
H2406       H  0.71273650  0.96212145  0.89556082     0.12600
H2407       H  0.84438312  0.92259306  0.91556093     0.12500
H2408       H  0.85841656  0.93380717  0.85413591     0.12300
H2409       H  0.84435591  0.97266327  0.79935629     0.12800
H2410       H  0.72979071  0.98194017  0.83443823     0.14800
C2411       C  0.00100887  0.32641156  0.53165490    -0.05200
C2412       C  0.98061533  0.30192100  0.51838433    -0.05200
C2413       C  0.94290463  0.29916977  0.52778363    -0.23300
C2414       C  0.92667717  0.31983943  0.55131519     0.18900
C2415       C  0.94932293  0.33720487  0.57085083     0.16100
C2416       C  0.98814211  0.33550835  0.56414760    -0.18400
C2417       C  0.93242059  0.35828314  0.59387303    -0.20200
C2418       C  0.89326936  0.36283863  0.59654628    -0.12700
C2419       C  0.87023547  0.34622636  0.57645177     0.03900
C2420       C  0.88825776  0.32386008  0.55469258    -0.24900
H2421       H  0.99708077  0.28704666  0.00085869     0.09000
H2422       H  0.92583735  0.28416061  0.51383739     0.12600
H2423       H  0.00528506  0.35163101  0.57681501     0.12500
H2424       H  0.94945809  0.37159062  0.60945782     0.12300
H2425       H  0.88096801  0.37771678  0.61559278     0.12800
H2426       H  0.87276294  0.30696101  0.54162078     0.14800
C2427       C  0.51684048  0.11772023  0.82232009    -0.05200
C2428       C  0.49616916  0.10855629  0.79514206    -0.05200
C2429       C  0.45780436  0.11029279  0.79583802    -0.23300
C2430       C  0.43838928  0.11708494  0.82557284     0.18900
C2431       C  0.45793021  0.12415265  0.85439638     0.16100
C2432       C  0.49729297  0.12618741  0.85205945    -0.18400
C2433       C  0.43768821  0.12579604  0.88566694    -0.20200
C2434       C  0.40134610  0.11342471  0.88984970    -0.12700
C2435       C  0.38463513  0.10134697  0.86201721     0.03900
C2436       C  0.40035623  0.11096740  0.82868835    -0.24900
H2437       H  0.51011955  0.10162109  0.77192304     0.09000
H2438       H  0.44343227  0.10376978  0.77396474     0.12600
H2439       H  0.51238785  0.13255986  0.87352371     0.12500
H2440       H  0.45135764  0.13192388  0.90806101     0.12300
H2441       H  0.89200547  0.10632797  0.91604140     0.12800
H2442       H  0.38826397  0.60184658  0.80860827     0.14800
C2443       C  0.95177888  0.99039585  0.58157477    -0.05200
C2444       C  0.96941990  0.01934375  0.58978148    -0.05200
C2445       C  0.94847786  0.05037603  0.59127052    -0.23300
C2446       C  0.91068848  0.05211361  0.58334102     0.18900
C2447       C  0.89261670  0.02099862  0.58123143     0.16100
C2448       C  0.91298363  0.98913945  0.58651517    -0.18400
C2449       C  0.85632633  0.02279874  0.56924710    -0.20200
C2450       C  0.83730820  0.05516963  0.56158102    -0.12700
C2451       C  0.85296490  0.08565739  0.56916942     0.03900
C2452       C  0.89112509  0.08427653  0.57631328    -0.24900
H2453       H  0.99950215  0.02001933  0.58860626     0.09000
H2454       H  0.96229040  0.07364466  0.59487591     0.12600
H2455       H  0.90153267  0.96297529  0.08058845     0.12500
H2456       H  0.84281294  0.99931258  0.56552505     0.12300
H2457       H  0.80862101  0.05575778  0.55394826     0.12800
H2458       H  0.90556042  0.10793297  0.57744924     0.14800
C2459       C  0.53116683  0.33409987  0.73600366    -0.05200
C2460       C  0.50282460  0.31272515  0.75265850    -0.05200
C2461       C  0.46877363  0.32705111  0.76206298    -0.23300
C2462       C  0.46289521  0.36330122  0.75684872     0.18900
C2463       C  0.49070575  0.38538199  0.73998025     0.16100
C2464       C  0.52451311  0.37063009  0.72894065    -0.18400
C2465       C  0.48509561  0.42182205  0.73679009    -0.20200
C2466       C  0.45535736  0.43565954  0.75503409    -0.12700
C2467       C  0.43065053  0.41298663  0.77563160     0.03900
C2468       C  0.43164086  0.37763971  0.77229359    -0.24900
H2469       H  0.50696288  0.28443912  0.75780217     0.09000
H2470       H  0.44782318  0.30982118  0.77512912     0.12600
H2471       H  0.54536863  0.38774684  0.71586321     0.12500
H2472       H  0.50560201  0.43929824  0.72334718     0.12300
H2473       H  0.45463279  0.46338603  0.75630805     0.12800
H2474       H  0.91453301  0.36000578  0.78841724     0.14800
C2475       C  0.55252457  0.08329803  0.56900604    -0.05200
C2476       C  0.52529057  0.10784443  0.55309064    -0.05200
C2477       C  0.51851315  0.11122064  0.51811837    -0.23300
C2478       C  0.53622105  0.08845152  0.49829351     0.18900
C2479       C  0.55852923  0.05975955  0.51430455     0.16100
C2480       C  0.56730911  0.05764806  0.54962038    -0.18400
C2481       C  0.57121873  0.03415655  0.49438655    -0.20200
C2482       C  0.55636780  0.04245464  0.96109059    -0.12700
C2483       C  0.53483681  0.06392556  0.44586893     0.03900
C2484       C  0.52887169  0.09245853  0.46312490    -0.24900
H2485       H  0.51182368  0.12797615  0.56562669     0.09000
H2486       H  0.49954625  0.13212438  0.50646521     0.12600
H2487       H  0.58806164  0.03833740  0.56091356     0.12500
H2488       H  0.58818956  0.01168313  0.50592677     0.12300
H2489       H  0.56342402  0.51424363  0.94647006     0.12800
H2490       H  0.00493038  0.11628149  0.45647434     0.14800
C2491       C  0.57555663  0.59457864  0.09534163     0.86500
C2492       C  0.59641082  0.56828777  0.12392977    -0.53700
C2493       C  0.62041355  0.58393453  0.14311600     0.09400
C2494       C  0.62013986  0.62502511  0.13004404     0.20400
C2495       C  0.55605021  0.62241312  0.11519923    -0.54500
C2496       C  0.57913711  0.64033044  0.13136988     0.09500
C2497       C  0.60699240  0.61365441  0.07308222    -0.54000
C2498       C  0.63083245  0.62881429  0.09083972     0.10100
H2499       H  0.59350518  0.54017500  0.12744242     0.14600
H2500       H  0.63789946  0.63936295  0.14452422     0.00400
H2501       H  0.52660916  0.62873876  0.11559335     0.14900
H2502       H  0.60947483  0.61627125  0.04485989     0.14700
C2503       C  0.56812434  0.67573918  0.14408492     0.30000
C2504       C  0.56520102  0.73789766  0.17001572     0.30000
C2505       C  0.57636729  0.70912845  0.11769508    -0.06200
C2506       C  0.52859282  0.68613017  0.15918303    -0.07000
C2507       C  0.59345676  0.67824512  0.17379551    -0.06800
C2508       C  0.57488007  0.74055482  0.13096667    -0.06200
C2509       C  0.52651964  0.71812762  0.17282275    -0.07000
C2510       C  0.59051162  0.70896636  0.18719381    -0.06800
C2511       C  0.56741313  0.76686846  0.10306288    -0.32200
N2512       N  0.56947720  0.75403209  0.07266833     0.14300
C2513       C  0.57020634  0.71854921  0.08240046    -0.32200
H2514       H  0.56554846  0.70043259  0.06482147     0.16200
C2515       C  0.98847796  0.72647188  0.18200105    -0.31200
N2516       N  0.96798228  0.69965220  0.17406689     0.13000
C2517       C  0.99275316  0.67681660  0.16113701    -0.31200
C2518       C  0.59222556  0.69969785  0.22234479    -0.31500
N2519       N  0.60152214  0.66581194  0.23080445     0.13500
H2520       H  0.57699051  0.71433329  0.23981797     0.16100
C2521       C  0.60095592  0.65231711  0.20133801    -0.31500
H2522       H  0.59721831  0.62566984  0.20019598     0.16100
H2523       H  0.98454364  0.65354624  0.15202984     0.16100
H2524       H  0.56238171  0.79436828  0.10457665     0.16200
H2525       H  0.97625902  0.74934639  0.19135955     0.16100
C2526       C  0.56326383  0.81479631  0.22292231     0.86500
C2527       C  0.59556035  0.83605068  0.20336975    -0.53700
C2528       C  0.62492951  0.81603787  0.19287628     0.09400
C2529       C  0.61692159  0.77566175  0.20229959     0.20400
C2530       C  0.55059064  0.79155388  0.19780153    -0.54500
C2531       C  0.57682283  0.77009797  0.18686844     0.09500
C2532       C  0.58246346  0.79010781  0.25321206    -0.54000
C2533       C  0.61160692  0.76989618  0.24338389     0.10100
H2534       H  0.59554488  0.86423331  0.19856156     0.14600
H2535       H  0.63908215  0.75849286  0.19285466     0.00400
H2536       H  0.52176406  0.79059087  0.19084042     0.14900
H2537       H  0.57395769  0.78926452  0.28037494     0.14700
C2538       C  0.70738959  0.54103656  0.21420495     0.30000
C2539       C  0.65031703  0.56422948  0.16936873     0.30000
C2540       C  0.71570461  0.57019537  0.18520113    -0.06200
C2541       C  0.69515372  0.51330915  0.19343430    -0.07000
C2542       C  0.67056047  0.55198578  0.23079751    -0.06800
C2543       C  0.68729568  0.58478959  0.16479672    -0.06200
C2544       C  0.66586600  0.52426012  0.16991125    -0.07000
C2545       C  0.64103601  0.56262473  0.20903685    -0.06800
C2546       C  0.70454247  0.61084170  0.14145726    -0.32200
N2547       N  0.74195340  0.60687632  0.14271577     0.14300
C2548       C  0.74858477  0.57995283  0.16850992    -0.32200
H2549       H  0.77480919  0.56587189  0.17340429     0.16200
C2550       C  0.65660806  0.99346887  0.15962138    -0.31200
N2551       N  0.67943602  0.96571665  0.17421054     0.13000
C2552       C  0.70248823  0.97752342  0.19597411    -0.31200
C2553       C  0.61093690  0.56761556  0.23157957    -0.31500
N2554       N  0.62265524  0.56446066  0.26497122     0.13500
H2555       H  0.58265719  0.57502853  0.22411563     0.16100
C2556       C  0.65874255  0.55316986  0.26448305    -0.31500
H2557       H  0.67595998  0.54783105  0.28690771     0.16100
H2558       H  0.72353702  0.96148476  0.21096112     0.16100
H2559       H  0.69165061  0.63347642  0.12776966     0.16200
H2560       H  0.63550602  0.99147535  0.14113335     0.16100
C2561       C  0.82471211  0.61480067  0.07900791     0.86500
C2562       C  0.84320280  0.63683219  0.10303766    -0.53700
C2563       C  0.81988152  0.65858852  0.11798490     0.09400
C2564       C  0.77855281  0.65839278  0.10388079     0.20400
C2565       C  0.79308108  0.59753894  0.10260215    -0.54500
C2566       C  0.76886359  0.61991532  0.11569110     0.09500
C2567       C  0.80471326  0.64055072  0.04993386    -0.54000
C2568       C  0.77936562  0.66360839  0.06183040     0.10100
H2569       H  0.87069942  0.63102292  0.11335866     0.14600
H2570       H  0.75784307  0.67604056  0.11480340     0.00400
H2571       H  0.79103544  0.56940389  0.11042156     0.14900
H2572       H  0.80823827  0.63865186  0.02251991     0.14700
C2573       C  0.55754222  0.61993341  0.31380865     0.86500
C2574       C  0.56059367  0.64613705  0.27981075    -0.53700
C2575       C  0.59449578  0.64675701  0.26451909     0.09400
C2576       C  0.62357879  0.62416136  0.28497218     0.20400
C2577       C  0.57475073  0.58474328  0.30494569    -0.54500
C2578       C  0.60885340  0.58739558  0.28878334     0.09500
C2579       C  0.58662826  0.63365157  0.33724315    -0.54000
C2580       C  0.62234533  0.63616293  0.32197013     0.10100
H2581       H  0.53725194  0.66162949  0.26748296     0.14600
H2582       H  0.64995155  0.62647722  0.26929144     0.00400
H2583       H  0.55890265  0.56130953  0.30638160     0.14900
H2584       H  0.57893284  0.64380624  0.36094958     0.14700
C2585       C  0.82837269  0.69263286  0.21796050     0.30000
C2586       C  0.82956774  0.66898439  0.15426297     0.30000
C2587       C  0.80705423  0.71369033  0.18849291    -0.06200
C2588       C  0.86816662  0.69317544  0.19872855    -0.07000
C2589       C  0.81844091  0.65401677  0.21852886    -0.06800
C2590       C  0.80370615  0.69976108  0.15844050    -0.06200
C2591       C  0.86897194  0.68110291  0.16584130    -0.07000
C2592       C  0.81890648  0.64229274  0.18642925    -0.06800
C2593       C  0.79624874  0.72699308  0.13265769    -0.32200
N2594       N  0.79944908  0.75686380  0.14437075     0.14300
C2595       C  0.80937352  0.74916651  0.17750395    -0.32200
H2596       H  0.82234962  0.76703196  0.19146968     0.16200
C2597       C  0.90643866  0.68309191  0.15372448    -0.31200
N2598       N  0.92794374  0.69631829  0.17671057     0.13000
C2599       C  0.90463241  0.70267088  0.20395805    -0.31200
C2600       C  0.82284188  0.60613466  0.19349663    -0.31500
N2601       N  0.82204588  0.59464978  0.22841017     0.13500
H2602       H  0.82762047  0.58927386  0.17417495     0.16100
C2603       C  0.82337540  0.62396769  0.24319146    -0.31500
H2604       H  0.82759093  0.62330119  0.27062746     0.16100
H2605       H  0.91362349  0.71249642  0.22654527     0.16100
H2606       H  0.79653096  0.72494452  0.10601617     0.16200
H2607       H  0.91721110  0.67516536  0.12979488     0.16100
C2608       C  0.82620358  0.83921385  0.08535665     0.86500
C2609       C  0.79576187  0.86186497  0.10349644    -0.53700
C2610       C  0.76333690  0.84358570  0.11365458     0.09400
C2611       C  0.76622504  0.80561892  0.10425452     0.20400
C2612       C  0.83156275  0.80614020  0.11281563    -0.54500
C2613       C  0.80023443  0.78948671  0.12228814     0.09500
C2614       C  0.80506937  0.82834661  0.05515792    -0.54000
C2615       C  0.77616878  0.80812271  0.06542650     0.10100
H2616       H  0.80015351  0.88781274  0.10920937     0.14600
H2617       H  0.74206716  0.78894841  0.11232701     0.00400
H2618       H  0.85826196  0.79580246  0.12311049     0.14900
H2619       H  0.81438914  0.83296994  0.02800633     0.14700
C2620       C  0.77882876  0.51628333  0.28757954     0.86500
C2621       C  0.75053903  0.50950674  0.26113555    -0.53700
C2622       C  0.73893803  0.53884373  0.23964043     0.09400
C2623       C  0.75678508  0.57289516  0.24713694     0.20400
C2624       C  0.81119219  0.53608028  0.26558400    -0.54500
C2625       C  0.79893550  0.56622825  0.24434851     0.09500
C2626       C  0.76032912  0.54482293  0.30677884    -0.54000
C2627       C  0.74931448  0.57424311  0.28548450     0.10100
H2628       H  0.73933443  0.48402747  0.26081434     0.14600
H2629       H  0.74706876  0.59788845  0.23114168     0.00400
H2630       H  0.84054870  0.52926394  0.26879223     0.14900
H2631       H  0.75725524  0.54246290  0.33491783     0.14700
C2632       C  0.66176545  0.83162771  0.17432117     0.30000
C2633       C  0.72780823  0.85083104  0.13674140     0.30000
C2634       C  0.66378094  0.82787616  0.13660932    -0.06200
C2635       C  0.67311456  0.87210075  0.17143048    -0.07000
C2636       C  0.69785557  0.81110310  0.18650865    -0.06800
C2637       C  0.69502380  0.83990012  0.11743465    -0.06200
C2638       C  0.70715404  0.88115946  0.15206704    -0.07000
C2639       C  0.73036868  0.82367221  0.17028133    -0.06800
C2640       C  0.68996015  0.83549207  0.08391972    -0.32200
N2641       N  0.65934332  0.81676027  0.08365128     0.14300
C2642       C  0.64287852  0.81239952  0.11566859    -0.32200
H2643       H  0.61818129  0.79880325  0.12369132     0.16200
C2644       C  0.71137735  0.91679444  0.15024929    -0.31200
N2645       N  0.68169593  0.93076200  0.16677103     0.13000
C2646       C  0.65874847  0.90410422  0.18023554    -0.31200
C2647       C  0.75899283  0.80796989  0.19027172    -0.31500
N2648       N  0.74585874  0.78058710  0.21328812     0.13500
H2649       H  0.78746324  0.81604009  0.18778924     0.16100
C2650       C  0.70871414  0.78108441  0.20882770    -0.31500
H2651       H  0.69174359  0.75951331  0.21795383     0.16100
H2652       H  0.63383147  0.90789227  0.19573864     0.16100
H2653       H  0.70808364  0.84426121  0.06177433     0.16200
H2654       H  0.73440842  0.93157109  0.13774675     0.16100
C2655       C  0.61956995  0.81287773  0.99700969     0.86500
C2656       C  0.58564552  0.79353919  0.01626072    -0.53700
C2657       C  0.59492580  0.77012732  0.04555348     0.09400
C2658       C  0.63638814  0.76795799  0.05209793     0.20400
C2659       C  0.63893973  0.82821957  0.02501955    -0.54500
C2660       C  0.64582526  0.80540368  0.05385716     0.09500
C2661       C  0.64714210  0.78310375  0.98900678    -0.54000
C2662       C  0.65563711  0.75906377  0.01793645     0.10100
H2663       H  0.55771094  0.79801840  0.00738254     0.14600
H2664       H  0.64382231  0.75021320  0.07647373     0.00400
H2665       H  0.64568111  0.85558855  0.02306656     0.14900
H2666       H  0.66127216  0.78254790  0.96406141     0.14700
C2667       C  0.80907072  0.75241531  0.29009025     0.86500
C2668       C  0.83191879  0.72583529  0.27100373    -0.53700
C2669       C  0.81141469  0.70897867  0.25036709     0.09400
C2670       C  0.76779124  0.71992199  0.25345417     0.20400
C2671       C  0.78828529  0.77682800  0.26102989    -0.54500
C2672       C  0.76645127  0.76041185  0.24185356     0.09500
C2673       C  0.77735291  0.73238654  0.31111010    -0.54000
C2674       C  0.75514565  0.71532764  0.29316941     0.10100
H2675       H  0.86210013  0.72399521  0.27059910     0.14600
H2676       H  0.74981719  0.70648260  0.23773342     0.00400
H2677       H  0.78877498  0.80514020  0.25622720     0.14900
H2678       H  0.77057310  0.73533998  0.33757357     0.14700
C2679       C  0.74895369  0.68725026  0.03840791     0.30000
C2680       C  0.68854576  0.73269491  0.02040853     0.30000
C2681       C  0.75331587  0.72692509  0.03966166    -0.06200
C2682       C  0.73490829  0.68956143  0.99885173    -0.07000
C2683       C  0.71153702  0.67861520  0.05754447    -0.06800
C2684       C  0.72268133  0.74884943  0.03061888    -0.06200
C2685       C  0.70362110  0.71338704  0.99095253    -0.07000
C2686       C  0.68196224  0.70255924  0.04964590    -0.06800
C2687       C  0.73063020  0.78241786  0.03343028    -0.32200
N2688       N  0.76501938  0.78237981  0.04542245     0.14300
C2689       C  0.78025758  0.74917721  0.04681165    -0.32200
H2690       H  0.80884312  0.74172363  0.05307646     0.16200
C2691       C  0.69037718  0.70815952  0.45878652    -0.31200
N2692       N  0.71096859  0.68362685  0.44475051     0.13000
C2693       C  0.73843172  0.67043211  0.46807777    -0.31200
C2694       C  0.64977195  0.68533127  0.05833950    -0.31500
N2695       N  0.65789528  0.65229006  0.07302777     0.13500
H2696       H  0.62295263  0.69455389  0.04919163     0.16100
C2697       C  0.69501826  0.64669683  0.06778814    -0.31500
H2698       H  0.70919276  0.62114736  0.07141349     0.16100
H2699       H  0.75882741  0.65002348  0.46384577     0.16100
H2700       H  0.71273135  0.80533652  0.02707397     0.16200
H2701       H  0.66667392  0.72281260  0.44663365     0.16100
C2702       C  0.71943668  0.69710799  0.31011730     0.30000
C2703       C  0.65555936  0.65923141  0.32905311     0.30000
C2704       C  0.71950531  0.66021788  0.30189218    -0.06200
C2705       C  0.70948866  0.68941217  0.35081973    -0.07000
C2706       C  0.68242589  0.71403061  0.29532863    -0.06800
C2707       C  0.68939333  0.64084823  0.31406939    -0.06200
C2708       C  0.67631466  0.67046073  0.36075055    -0.07000
C2709       C  0.65097269  0.69501045  0.30445941    -0.06800
C2710       C  0.69963832  0.60610991  0.31407312    -0.32200
N2711       N  0.73324949  0.60454923  0.29789060     0.14300
C2712       C  0.74604595  0.63743681  0.29129257    -0.32200
H2713       H  0.77301473  0.64462775  0.28129558     0.16200
C2714       C  0.67514373  0.66448557  0.39748793    -0.31200
N2715       N  0.70619385  0.67729439  0.40991936     0.13000
C2716       C  0.72685050  0.69227032  0.38179556    -0.31200
C2717       C  0.62104202  0.71549696  0.28955610    -0.31500
N2718       N  0.63336903  0.74515305  0.26907460     0.13500
H2719       H  0.59219456  0.70890234  0.29364126     0.16100
C2720       C  0.67009380  0.74597702  0.27654169    -0.31500
H2721       H  0.68651222  0.76893292  0.27080930     0.16100
H2722       H  0.75270703  0.70439431  0.38441983     0.16100
H2723       H  0.68311467  0.58387679  0.32419569     0.16200
H2724       H  0.65323259  0.65160482  0.41390930     0.16100
C2725       C  0.05828388  0.94181253  0.35953397     0.42500
N2726       N  0.00503515  0.92894618  0.38487631     0.01400
C2727       C  0.85898238  0.54969667  0.40395143    -0.06500
H2728       H  0.95880045  0.56229160  0.47378242     0.06900
C2729       C  0.95654911  0.94500672  0.54210861    -0.06900
Co2730     Co  0.95008792  0.98928120  0.37752665     0.78600
N2731       N  0.95060782  0.02988231  0.43454419    -0.26000
Co2732     Co  0.90631228  0.00086338  0.45507977     0.74100
C2733       C  0.96328206  0.48102040  0.54752125     0.42600
N2734       N  0.97326860  0.89528707  0.48202435     0.01000
N2735       N  0.93532662  0.98308849  0.49999162     0.01100
N2736       N  0.38874159  0.04032253  0.35295871    -0.46900
H2737       H  0.54088009  0.00163440  0.34801231     0.06800
N2738       N  0.97049306  0.02344450  0.40712669     0.01400
N2739       N  0.86119801  0.97020418  0.47470128     0.01100
C2740       C  0.80762172  0.44624726  0.47065026     0.42700
N2741       N  0.98751869  0.88302488  0.45477614    -0.25500
C2742       C  0.41723319  0.95654752  0.31644899    -0.06400
N2743       N  0.03701561  0.91535345  0.37482725    -0.46600
N2744       N  0.82565267  0.47679974  0.46551529    -0.46800
C2745       C  0.91466077  0.92348504  0.30898926     0.42500
N2746       N  0.89752269  0.01571591  0.37944144     0.01400
N2747       N  0.91876839  0.87098293  0.42860941    -0.25500
N2748       N  0.00207403  0.96313185  0.37530953    -0.26000
N2749       N  0.90041611  0.87606426  0.45722617     0.01000
H2750       H  0.91692486  0.83320824  0.39462137     0.06900
H2751       H  0.82985531  0.89374987  0.49606926     0.06900
N2752       N  0.88044197  0.01912980  0.40935867    -0.26100
N2753       N  0.93825602  0.94962389  0.51235339    -0.25700
N2754       N  0.93251449  0.91933713  0.36190803     0.01400
C2755       C  0.49978454  0.55930927  0.42890023     0.42800
C2756       C  0.01216439  0.85695110  0.46714629    -0.06900
N2757       N  0.86641639  0.93665922  0.48695066    -0.25700
H2758       H  0.96054921  0.92033242  0.55938943     0.06900
N2759       N  0.50255730  0.03811005  0.40090013    -0.46900
H2760       H  0.02405774  0.83773545  0.45222500     0.06900
C2761       C  0.87635983  0.83152614  0.44163234     0.42600
C2762       C  0.53536455  0.97459288  0.35835434    -0.06400
Co2763     Co  0.96127883  0.90000748  0.40724981     0.73800
N2764       N  0.99044820  0.88332142  0.51072774    -0.46600
C2765       C  0.36667472  0.56246662  0.36718624     0.42900
N2766       N  0.92312813  0.90082457  0.33836137    -0.46600
Co2767     Co  0.91907561  0.91375354  0.48519332     0.73900
C2768       C  0.83341793  0.92170125  0.49102231    -0.06900
C2769       C  0.96678882  0.55490912  0.44886322    -0.06500
N2770       N  0.92925066  0.95334183  0.35043616    -0.26000
N2771       N  0.94993674  0.50297200  0.51943283    -0.46800
H2772       H  0.84882977  0.56213122  0.42557242     0.06900
C2773       C  0.90721558  0.84273905  0.41810838    -0.06900
Cl2774     Cl  0.93378155  0.95101171  0.43097089    -0.49900
C2775       C  0.01151946  0.85515498  0.50587155     0.42600
H2776       H  0.41522428  0.98170027  0.29955055     0.06800
N2777       N  0.87340641  0.85351172  0.46541682    -0.46600
C2778       C  0.84575434  0.81558172  0.42727195    -0.05200
C2779       C  0.84385928  0.77908948  0.43615299    -0.05200
C2780       C  0.83861389  0.75880072  0.41032649    -0.23300
C2781       C  0.83660297  0.77494607  0.37536649     0.18900
C2782       C  0.83516090  0.81187546  0.36707971     0.16100
C2783       C  0.83596667  0.83190697  0.39368382    -0.18400
C2784       C  0.83642729  0.82808708  0.33220075    -0.20200
C2785       C  0.83525262  0.80798279  0.30579762    -0.12700
C2786       C  0.83043042  0.77153379  0.31392306     0.03900
C2787       C  0.83576208  0.75496417  0.34859240    -0.24900
H2788       H  0.85132047  0.76603353  0.46191225     0.09000
H2789       H  0.83920866  0.73048627  0.41725367     0.12600
H2790       H  0.83748640  0.86018430  0.38681213     0.12500
H2791       H  0.83802092  0.85631105  0.32533911     0.12300
H2792       H  0.83608896  0.82153981  0.27922958     0.12800
H2793       H  0.83474032  0.72666307  0.35517404     0.14800
C2794       C  0.61045872  0.84386021  0.96850214    -0.05200
C2795       C  0.59360239  0.87416489  0.97932004    -0.05200
C2796       C  0.59442746  0.90666817  0.95816435    -0.23300
C2797       C  0.60829898  0.90928611  0.92404467     0.18900
C2798       C  0.62162713  0.87875506  0.91113394     0.16100
C2799       C  0.62409522  0.84637301  0.93379077    -0.18400
C2800       C  0.63494038  0.88580390  0.37815959    -0.20200
C2801       C  0.62184076  0.91581920  0.35585824    -0.12700
C2802       C  0.59797669  0.93868759  0.86629817     0.03900
C2803       C  0.60334196  0.94093439  0.90114470    -0.24900
H2804       H  0.58258784  0.87319037  0.00571754     0.09000
H2805       H  0.58251612  0.92946448  0.96803333     0.12600
H2806       H  0.63572268  0.82349716  0.92406373     0.12500
H2807       H  0.64873799  0.86453524  0.36710077     0.12300
H2808       H  0.62316380  0.91574488  0.32805499     0.12800
H2809       H  0.59090818  0.96339418  0.91134964     0.14800
C2810       C  0.79021867  0.43820293  0.43964703    -0.05200
C2811       C  0.75269910  0.44734183  0.43345559    -0.05200
C2812       C  0.74045033  0.45405204  0.39924363    -0.23300
C2813       C  0.76649468  0.45452583  0.37131381     0.18900
C2814       C  0.80352209  0.44248587  0.37772180     0.16100
C2815       C  0.81440788  0.43195950  0.41189558    -0.18400
C2816       C  0.83045202  0.44652556  0.35056696    -0.20200
C2817       C  0.82258326  0.46826436  0.31911201    -0.12700
C2818       C  0.78680572  0.48367320  0.31401831     0.03900
C2819       C  0.75781474  0.47215843  0.33819811    -0.24900
H2820       H  0.73313592  0.95917133  0.45905608     0.09000
H2821       H  0.71188033  0.46326676  0.39466583     0.12600
H2822       H  0.84358021  0.42519370  0.41664283     0.12500
H2823       H  0.85852041  0.43630954  0.35525901     0.12300
H2824       H  0.84481231  0.47452137  0.29998909     0.12800
H2825       H  0.72964934  0.48275981  0.33367457     0.14800
C2826       C  0.99684987  0.82478495  0.02865752    -0.05200
C2827       C  0.97557285  0.80108292  0.01520512    -0.05200
C2828       C  0.93780886  0.79934250  0.02451552    -0.23300
C2829       C  0.92217180  0.82056812  0.04780568     0.18900
C2830       C  0.94526292  0.83758873  0.06721867     0.16100
C2831       C  0.98401214  0.83496813  0.06068645    -0.18400
C2832       C  0.92891657  0.85905803  0.09014997    -0.20200
C2833       C  0.88983561  0.86407048  0.09309200    -0.12700
C2834       C  0.86634264  0.84766467  0.07323559     0.03900
C2835       C  0.88385993  0.82526807  0.05122458    -0.24900
H2836       H  0.99118442  0.78917616  0.49515521     0.09000
H2837       H  0.92030842  0.78459143  0.01070602     0.12600
H2838       H  0.00162651  0.85072917  0.07330929     0.12500
H2839       H  0.94632832  0.87211828  0.10563241     0.12300
H2840       H  0.87793967  0.87901896  0.11225387     0.12800
H2841       H  0.86803573  0.80857146  0.03821185     0.14800
C2842       C  0.51566640  0.61670336  0.32133110    -0.05200
C2843       C  0.49532099  0.60774435  0.29381598    -0.05200
C2844       C  0.45695255  0.60822087  0.29468526    -0.23300
C2845       C  0.43730133  0.61384416  0.32469818     0.18900
C2846       C  0.45654478  0.62105866  0.35363661     0.16100
C2847       C  0.49581202  0.62402125  0.35134197    -0.18400
C2848       C  0.43616706  0.62224720  0.38489439    -0.20200
C2849       C  0.39990086  0.60976038  0.38888129    -0.12700
C2850       C  0.38342119  0.59750441  0.36102529     0.03900
C2851       C  0.39945575  0.60681343  0.32775388    -0.24900
H2852       H  0.50950421  0.60159494  0.27038361     0.09000
H2853       H  0.44284991  0.60172952  0.27264719     0.12600
H2854       H  0.51065327  0.63026279  0.37301835     0.12500
H2855       H  0.44960831  0.62851603  0.40735064     0.12300
H2856       H  0.89217646  0.60664615  0.41905428     0.12800
H2857       H  0.38998254  0.10329379  0.30864014     0.14800
C2858       C  0.94964630  0.49139885  0.08068851    -0.05200
C2859       C  0.96721371  0.52079239  0.08793407    -0.05200
C2860       C  0.94624288  0.55195836  0.08853686    -0.23300
C2861       C  0.90840302  0.55333111  0.08093839     0.18900
C2862       C  0.89037868  0.52197997  0.07971262     0.16100
C2863       C  0.91083764  0.49019860  0.08556153    -0.18400
C2864       C  0.85389123  0.52336756  0.06827640    -0.20200
C2865       C  0.83461936  0.55558846  0.06050241    -0.12700
C2866       C  0.85033435  0.58631755  0.06743798     0.03900
C2867       C  0.88863802  0.58534038  0.07369023    -0.24900
H2868       H  0.99727907  0.52145994  0.08677344     0.09000
H2869       H  0.96000013  0.57548839  0.09140902     0.12600
H2870       H  0.90178544  0.46461527  0.58647312     0.12500
H2871       H  0.84037613  0.49967431  0.06520615     0.12300
H2872       H  0.80577438  0.55589993  0.05340501     0.12800
H2873       H  0.90291462  0.60919911  0.07435120     0.14800
C2874       C  0.52875096  0.83351166  0.23518455    -0.05200
C2875       C  0.50054541  0.81225021  0.25227652    -0.05200
C2876       C  0.46643411  0.82665878  0.26145246    -0.23300
C2877       C  0.46037608  0.86290696  0.25550220     0.18900
C2878       C  0.48799148  0.88482897  0.23802350     0.16100
C2879       C  0.52180711  0.86995941  0.22721435    -0.18400
C2880       C  0.48227658  0.92130711  0.23413540    -0.20200
C2881       C  0.45281009  0.93543619  0.25247304    -0.12700
C2882       C  0.42847933  0.91298001  0.27379451     0.03900
C2883       C  0.42924593  0.87751575  0.27088783    -0.24900
H2884       H  0.50485214  0.78400059  0.25797974     0.09000
H2885       H  0.44561175  0.80954966  0.27495365     0.12600
H2886       H  0.54246844  0.88698169  0.21364397     0.12500
H2887       H  0.50262234  0.93864178  0.22018808     0.12300
H2888       H  0.45214814  0.96324689  0.25334485     0.12800
H2889       H  0.91236164  0.86128458  0.28975254     0.14800
C2890       C  0.55111092  0.58222357  0.06909908    -0.05200
C2891       C  0.52404159  0.60697303  0.05318719    -0.05200
C2892       C  0.51824842  0.61133610  0.01794327    -0.23300
C2893       C  0.53638945  0.58903694  0.99785243     0.18900
C2894       C  0.55836482  0.56002898  0.01375845     0.16100
C2895       C  0.56627436  0.55703767  0.04936344    -0.18400
C2896       C  0.57152546  0.53490971  0.99348083    -0.20200
C2897       C  0.55543432  0.53711653  0.46311891    -0.12700
C2898       C  0.53530457  0.56513487  0.94509505     0.03900
C2899       C  0.52948436  0.59356699  0.96253230    -0.24900
H2900       H  0.51010882  0.62662378  0.06607592     0.09000
H2901       H  0.49948172  0.63244629  0.00636103     0.12600
H2902       H  0.58683486  0.53752259  0.06065281     0.12500
H2903       H  0.58839831  0.51230753  0.00488256     0.12300
H2904       H  0.56255620  0.01278755  0.44784311     0.12800
H2905       H  0.00721326  0.61248660  0.95697064     0.14800
C2906       C  0.57490303  0.59415500  0.59856391     0.86500
C2907       C  0.59584590  0.56840780  0.62732455    -0.53700
C2908       C  0.62056839  0.58426722  0.64544862     0.09400
C2909       C  0.62084138  0.62520543  0.63144723     0.20400
C2910       C  0.55639905  0.62302139  0.61767127    -0.54500
C2911       C  0.58005464  0.64092689  0.63318089     0.09500
C2912       C  0.60614073  0.61249813  0.57524713    -0.54000
C2913       C  0.63071817  0.62800018  0.59207101     0.10100
H2914       H  0.59237697  0.54034672  0.63175502     0.14600
H2915       H  0.63919733  0.63976877  0.64520042     0.00400
H2916       H  0.52730230  0.63030752  0.61810961     0.14900
H2917       H  0.60792758  0.61435222  0.54707995     0.14700
C2918       C  0.56931548  0.67648705  0.64563427     0.30000
C2919       C  0.56605120  0.73927247  0.67051055     0.30000
C2920       C  0.57726288  0.70954807  0.61879494    -0.06200
C2921       C  0.52965521  0.68689418  0.66070899    -0.07000
C2922       C  0.59495632  0.67969293  0.67493101    -0.06800
C2923       C  0.57573031  0.74127012  0.63146583    -0.06200
C2924       C  0.52729608  0.71923776  0.67373261    -0.07000
C2925       C  0.59139538  0.71055375  0.68801294    -0.06800
C2926       C  0.56907800  0.76720407  0.60301323    -0.32200
N2927       N  0.57139352  0.75363994  0.57299517     0.14300
C2928       C  0.57177529  0.71825351  0.58337127    -0.32200
H2929       H  0.56710619  0.69975523  0.56620014     0.16200
C2930       C  0.98854647  0.72482783  0.68199566    -0.31200
N2931       N  0.96811066  0.69815242  0.67370668     0.13000
C2932       C  0.99287357  0.67521313  0.66103017    -0.31200
C2933       C  0.59315904  0.70167497  0.72317899    -0.31500
N2934       N  0.60336996  0.66801921  0.73193310     0.13500
H2935       H  0.57781262  0.71637590  0.74056526     0.16100
C2936       C  0.60349653  0.65422320  0.70257475    -0.31500
H2937       H  0.60119323  0.62736886  0.70159598     0.16100
H2938       H  0.98465676  0.65198214  0.65187088     0.16100
H2939       H  0.56457736  0.79489092  0.60389159     0.16200
H2940       H  0.97628344  0.74769464  0.69133624     0.16100
C2941       C  0.56586210  0.81647314  0.72310690     0.86500
C2942       C  0.59820665  0.83748595  0.70322766    -0.53700
C2943       C  0.62731139  0.81722726  0.69249781     0.09400
C2944       C  0.61889944  0.77694490  0.70206830     0.20400
C2945       C  0.55259135  0.79335693  0.69807206    -0.54500
C2946       C  0.57842303  0.77163769  0.68694496     0.09500
C2947       C  0.58516311  0.79170973  0.75320233    -0.54000
C2948       C  0.61403015  0.77137015  0.74319663     0.10100
H2949       H  0.59833568  0.86565432  0.69838731     0.14600
H2950       H  0.64091314  0.75961424  0.69260024     0.00400
H2951       H  0.52362038  0.79251499  0.69147320     0.14900
H2952       H  0.57698836  0.79097475  0.78043147     0.14700
C2953       C  0.70730612  0.54106627  0.71626700     0.30000
C2954       C  0.65029012  0.56450837  0.67163697     0.30000
C2955       C  0.71617845  0.56922829  0.68642099    -0.06200
C2956       C  0.69382291  0.51299505  0.69664379    -0.07000
C2957       C  0.67102246  0.55336284  0.73281249    -0.06800
C2958       C  0.68781068  0.58403409  0.66609342    -0.06200
C2959       C  0.66455383  0.52409513  0.67315423    -0.07000
C2960       C  0.64150183  0.56411756  0.71113663    -0.06800
C2961       C  0.70531391  0.60904548  0.64186896    -0.32200
N2962       N  0.74267526  0.60421417  0.64274110     0.14300
C2963       C  0.74911566  0.57777920  0.66909485    -0.32200
H2964       H  0.77523030  0.56355416  0.67426314     0.16200
C2965       C  0.65846069  0.99441954  0.65642997    -0.31200
N2966       N  0.68182738  0.96685892  0.67052210     0.13000
C2967       C  0.70431171  0.97861447  0.69281488    -0.31200
C2968       C  0.61150004  0.56942965  0.73363400    -0.31500
N2969       N  0.62331021  0.56630311  0.76696856     0.13500
H2970       H  0.58334115  0.57736584  0.72609017     0.16100
C2971       C  0.65928641  0.55465036  0.76649209    -0.31500
H2972       H  0.67642391  0.54889844  0.78895585     0.16100
H2973       H  0.72547416  0.96265242  0.70770922     0.16100
H2974       H  0.69266942  0.63165526  0.62790726     0.16200
H2975       H  0.63749548  0.99240353  0.63782055     0.16100
C2976       C  0.82575986  0.61194120  0.57930941     0.86500
C2977       C  0.84391892  0.63440864  0.60312862    -0.53700
C2978       C  0.82037630  0.65617588  0.61786348     0.09400
C2979       C  0.77913596  0.65556723  0.60364910     0.20400
C2980       C  0.79418442  0.59465540  0.60302997    -0.54500
C2981       C  0.76970811  0.61706976  0.61576687     0.09500
C2982       C  0.80555114  0.63732780  0.54997790    -0.54000
C2983       C  0.77995368  0.66042483  0.56159524     0.10100
H2984       H  0.87144399  0.62884439  0.61347541     0.14600
H2985       H  0.75830123  0.67321820  0.61440280     0.00400
H2986       H  0.79233970  0.56655480  0.61124043     0.14900
H2987       H  0.80928539  0.63526651  0.52261775     0.14700
C2988       C  0.55938714  0.62309109  0.81538937     0.86500
C2989       C  0.56261927  0.64908639  0.78127389    -0.53700
C2990       C  0.59637026  0.64907373  0.76572851     0.09400
C2991       C  0.62524468  0.62620550  0.78618056     0.20400
C2992       C  0.57592742  0.58759310  0.80674614    -0.54500
C2993       C  0.60996577  0.58967233  0.79045878     0.09500
C2994       C  0.58885348  0.63652459  0.83854893    -0.54000
C2995       C  0.62445303  0.63842486  0.82304351     0.10100
H2996       H  0.53942329  0.66491169  0.76906453     0.14600
H2997       H  0.65152955  0.62806499  0.77035254     0.00400
H2998       H  0.55970942  0.56434940  0.80849581     0.14900
H2999       H  0.58152625  0.64701533  0.86214739     0.14700
C3000       C  0.82904908  0.69098089  0.71762433     0.30000
C3001       C  0.82990616  0.66688537  0.65411287     0.30000
C3002       C  0.80728105  0.71159380  0.68833222    -0.06200
C3003       C  0.86855345  0.69168049  0.69812062    -0.07000
C3004       C  0.81937864  0.65227785  0.71855065    -0.06800
C3005       C  0.80370622  0.69747577  0.65837399    -0.06200
C3006       C  0.86926989  0.67942493  0.66534421    -0.07000
C3007       C  0.81971159  0.64027661  0.68655241    -0.06800
C3008       C  0.79608187  0.72469576  0.63261643    -0.32200
N3009       N  0.79977665  0.75459257  0.64419713     0.14300
C3010       C  0.80975346  0.74697877  0.67722299    -0.32200
H3011       H  0.82331674  0.76475954  0.69086365     0.16200
C3012       C  0.90671840  0.68145452  0.65321018    -0.31200
N3013       N  0.92812934  0.69487913  0.67613626     0.13000
C3014       C  0.90488034  0.70129983  0.70331916    -0.31200
C3015       C  0.82381024  0.60414565  0.69391127    -0.31500
N3016       N  0.82330429  0.59298285  0.72888987     0.13500
H3017       H  0.82826337  0.58706276  0.67475147     0.16100
C3018       C  0.82470435  0.62247038  0.74336708    -0.31500
H3019       H  0.82860663  0.62208771  0.77080858     0.16100
H3020       H  0.91388867  0.71116209  0.72587568     0.16100
H3021       H  0.79598031  0.72256960  0.60602694     0.16200
H3022       H  0.91756388  0.67333449  0.62939300     0.16100
C3023       C  0.82894698  0.83604601  0.58529746     0.86500
C3024       C  0.79867096  0.85944693  0.60263987    -0.53700
C3025       C  0.76580271  0.84195577  0.61254889     0.09400
C3026       C  0.76810659  0.80368635  0.60359198     0.20400
C3027       C  0.83336089  0.80312082  0.61305878    -0.54500
C3028       C  0.80153987  0.78710185  0.62213305     0.09500
C3029       C  0.80828878  0.82484377  0.55490441    -0.54000
C3030       C  0.77876632  0.80524904  0.56495238     0.10100
H3031       H  0.80354919  0.88534351  0.60823740     0.14600
H3032       H  0.74364738  0.78742015  0.61162489     0.00400
H3033       H  0.85974541  0.79235107  0.62374282     0.14900
H3034       H  0.81809757  0.82890434  0.52790143     0.14700
C3035       C  0.77869103  0.51660526  0.78946430     0.86500
C3036       C  0.75009943  0.50972367  0.76337088    -0.53700
C3037       C  0.73905893  0.53883260  0.74132711     0.09400
C3038       C  0.75771377  0.57278754  0.74786290     0.20400
C3039       C  0.81143095  0.53522547  0.76704345    -0.54500
C3040       C  0.79971387  0.56515053  0.74514721     0.09500
C3041       C  0.76100757  0.54605388  0.80790257    -0.54000
C3042       C  0.75047818  0.57522174  0.78601946     0.10100
H3043       H  0.73822843  0.48440496  0.76372438     0.14600
H3044       H  0.74846097  0.59761612  0.73129467     0.00400
H3045       H  0.84066304  0.52792049  0.77045979     0.14900
H3046       H  0.75793004  0.54438378  0.83597932     0.14700
C3047       C  0.66432913  0.83232627  0.67365480     0.30000
C3048       C  0.73051349  0.85036777  0.63561006     0.30000
C3049       C  0.66655969  0.82702212  0.63637848    -0.06200
C3050       C  0.67552562  0.87296871  0.66921656    -0.07000
C3051       C  0.70054099  0.81239285  0.68667205    -0.06800
C3052       C  0.69779175  0.83855154  0.61697350    -0.06200
C3053       C  0.70958270  0.88153959  0.64963689    -0.07000
C3054       C  0.73313481  0.82443156  0.67003665    -0.06800
C3055       C  0.69256099  0.83370867  0.58365309    -0.32200
N3056       N  0.66190022  0.81502563  0.58376032     0.14300
C3057       C  0.64541169  0.81132606  0.61576971    -0.32200
H3058       H  0.62036698  0.79834702  0.62390756     0.16200
C3059       C  0.71372186  0.91738048  0.64703208    -0.31200
N3060       N  0.68401693  0.93178794  0.66325890     0.13000
C3061       C  0.66115135  0.90527197  0.67726575    -0.31200
C3062       C  0.76192872  0.80830734  0.68965596    -0.31500
N3063       N  0.74861968  0.78136382  0.71312963     0.13500
H3064       H  0.79067490  0.81551587  0.68637942     0.16100
C3065       C  0.71136430  0.78228141  0.70893196    -0.31500
H3066       H  0.69427409  0.76067615  0.71768349     0.16100
H3067       H  0.63639923  0.90935482  0.69287334     0.16100
H3068       H  0.71056281  0.84224410  0.56133974     0.16200
H3069       H  0.73687162  0.93191842  0.63444292     0.16100
C3070       C  0.62178616  0.81198014  0.49723662     0.86500
C3071       C  0.58776867  0.79268892  0.51644167    -0.53700
C3072       C  0.59692518  0.76909228  0.54562631     0.09400
C3073       C  0.63839918  0.76656248  0.55205015     0.20400
C3074       C  0.64127524  0.82692748  0.52532586    -0.54500
C3075       C  0.64809836  0.80389431  0.55400491     0.09500
C3076       C  0.64911053  0.78208434  0.48892778    -0.54000
C3077       C  0.65741865  0.75769912  0.51775073     0.10100
H3078       H  0.55978773  0.79753403  0.50780742     0.14600
H3079       H  0.64576684  0.74869615  0.57636877     0.00400
H3080       H  0.64798012  0.85429735  0.52356669     0.14900
H3081       H  0.66287209  0.78145024  0.46382585     0.14700
C3082       C  0.81266878  0.75159437  0.78931328     0.86500
C3083       C  0.83430707  0.72426037  0.77032242    -0.53700
C3084       C  0.81291283  0.70794516  0.74994515     0.09400
C3085       C  0.76966564  0.72028332  0.75318057     0.20400
C3086       C  0.79236577  0.77652513  0.76015897    -0.54500
C3087       C  0.76946174  0.76071490  0.74136539     0.09500
C3088       C  0.78060342  0.73259706  0.81063635    -0.54000
C3089       C  0.75749363  0.71625683  0.79291921     0.10100
H3090       H  0.86443833  0.72142520  0.76987548     0.14600
H3091       H  0.75093583  0.70727021  0.73776787     0.00400
H3092       H  0.79385307  0.80473923  0.75499518     0.14900
H3093       H  0.77477630  0.73533221  0.83730065     0.14700
C3094       C  0.74964344  0.68428299  0.53796981     0.30000
C3095       C  0.68984098  0.73068100  0.52009282     0.30000
C3096       C  0.75480297  0.72400034  0.53893732    -0.06200
C3097       C  0.73502210  0.68657854  0.49847376    -0.07000
C3098       C  0.71214819  0.67629593  0.55734036    -0.06800
C3099       C  0.72446162  0.74632576  0.52998418    -0.06200
C3100       C  0.70415078  0.71097437  0.49067176    -0.07000
C3101       C  0.68293298  0.70066470  0.54947319    -0.06800
C3102       C  0.73281768  0.77974681  0.53310189    -0.32200
N3103       N  0.76722452  0.77934955  0.54515488     0.14300
C3104       C  0.78204044  0.74594802  0.54638945    -0.32200
H3105       H  0.81042321  0.73802310  0.55307528     0.16200
C3106       C  0.69065516  0.71069343  0.95875490    -0.31200
N3107       N  0.71227845  0.68684654  0.94470721     0.13000
C3108       C  0.73950489  0.67390225  0.96829712    -0.31200
C3109       C  0.65044470  0.68390563  0.55841097    -0.31500
N3110       N  0.65800784  0.65078185  0.57329198     0.13500
H3111       H  0.62371345  0.69355687  0.54938817     0.16100
C3112       C  0.69506406  0.64465849  0.56794926    -0.31500
H3113       H  0.70886865  0.61893843  0.57183762     0.16100
H3114       H  0.76046467  0.65394479  0.96413364     0.16100
H3115       H  0.71504953  0.80280597  0.52708034     0.16200
H3116       H  0.66679289  0.72487117  0.94640873     0.16100
C3117       C  0.72177371  0.69861063  0.81014225     0.30000
C3118       C  0.65784701  0.66127912  0.82955162     0.30000
C3119       C  0.72159798  0.66161135  0.80221057    -0.06200
C3120       C  0.71187428  0.69141897  0.85089044    -0.07000
C3121       C  0.68486734  0.71563348  0.79524706    -0.06800
C3122       C  0.69149228  0.64248691  0.81474792    -0.06200
C3123       C  0.67859103  0.67273726  0.86095229    -0.07000
C3124       C  0.65334771  0.69683789  0.80463523    -0.06800
C3125       C  0.70135296  0.60771264  0.81461621    -0.32200
N3126       N  0.73456965  0.60593692  0.79776288     0.14300
C3127       C  0.74761156  0.63872442  0.79089032    -0.32200
H3128       H  0.77443135  0.64571686  0.78026783     0.16200
C3129       C  0.67703662  0.66725063  0.89758131    -0.31200
N3130       N  0.70795243  0.68019420  0.90997687     0.13000
C3131       C  0.72892247  0.69478977  0.88189089    -0.31200
C3132       C  0.62346685  0.71732444  0.78967790    -0.31500
N3133       N  0.63588670  0.74670063  0.76883889     0.13500
H3134       H  0.59458034  0.71099060  0.79403895     0.16100
C3135       C  0.67262116  0.74750475  0.77627067    -0.31500
H3136       H  0.68905208  0.77044185  0.77053328     0.16100
H3137       H  0.75463041  0.70711664  0.88458846     0.16100
H3138       H  0.68480750  0.58560914  0.82511386     0.16200
H3139       H  0.65492939  0.65467950  0.91397890     0.16100
C3140       C  0.06241561  0.94453856  0.85641081     0.42500
N3141       N  0.00883415  0.93038460  0.88046411     0.01400
C3142       C  0.85735141  0.54562597  0.90354088    -0.06500
H3143       H  0.95674079  0.56039669  0.97273372     0.06900
C3144       C  0.95892388  0.94526665  0.03795282    -0.06900
Co3145     Co  0.95319720  0.99011114  0.87351673     0.78600
N3146       N  0.95291413  0.03039648  0.93095476    -0.26000
Co3147     Co  0.90850698  0.00074002  0.95087145     0.74100
C3148       C  0.96181241  0.48016222  0.04805700     0.42600
N3149       N  0.97835782  0.89724546  0.97742544     0.01000
N3150       N  0.93702779  0.98338003  0.99616138     0.01100
N3151       N  0.38885885  0.04148761  0.85375285    -0.46900
H3152       H  0.54020504  0.00091166  0.84821196     0.06800
N3153       N  0.97319681  0.02417560  0.90364302     0.01400
N3154       N  0.86385681  0.96884025  0.96975559     0.01100
C3155       C  0.80539701  0.44674235  0.97289985     0.42700
N3156       N  0.99166721  0.88362289  0.95061261    -0.25500
C3157       C  0.41805060  0.95819845  0.81827097    -0.06400
N3158       N  0.04131142  0.91751112  0.87069800    -0.46600
N3159       N  0.82439368  0.47671599  0.96706745    -0.46800
C3160       C  0.91636905  0.92425198  0.80556351     0.42500
N3161       N  0.90046813  0.01610039  0.87518464     0.01400
N3162       N  0.92408820  0.87035238  0.92454613    -0.25500
N3163       N  0.00530318  0.96456123  0.87118314    -0.26000
N3164       N  0.90604658  0.87504361  0.95340483     0.01000
H3165       H  0.92686156  0.82937465  0.89384290     0.06900
H3166       H  0.83509173  0.89132985  0.99044777     0.06900
N3167       N  0.88286371  0.01888638  0.90498269    -0.26100
N3168       N  0.94098766  0.94991305  0.00803900    -0.25700
N3169       N  0.93633481  0.91995219  0.85776897     0.01400
C3170       C  0.50259380  0.55847379  0.92658509     0.42800
C3171       C  0.01279996  0.85513145  0.96399264    -0.06900
N3172       N  0.87001647  0.93540896  0.98212593    -0.25700
H3173       H  0.96350031  0.92046976  0.05487782     0.06900
N3174       N  0.50053067  0.04138902  0.90409341    -0.46900
H3175       H  0.02164536  0.83427145  0.94981941     0.06900
C3176       C  0.88686689  0.82661047  0.94140908     0.42600
C3177       C  0.53466164  0.97421773  0.85989054    -0.06400
Co3178     Co  0.96553737  0.90059522  0.90291661     0.73800
N3179       N  0.99417193  0.88416621  0.00656481    -0.46600
C3180       C  0.36887087  0.56476946  0.86941678     0.42900
N3181       N  0.92601817  0.90148819  0.83452776    -0.46600
Co3182     Co  0.92335539  0.91383038  0.98069091     0.73900
C3183       C  0.83760424  0.91942475  0.98575600    -0.06900
C3184       C  0.96570856  0.55209715  0.94845049    -0.06500
N3185       N  0.93271278  0.95398707  0.84645066    -0.26000
N3186       N  0.94966793  0.50145568  0.01908641    -0.46800
H3187       H  0.84628647  0.55820884  0.92475853     0.06900
C3188       C  0.91585966  0.83985616  0.91640751    -0.06900
Cl3189     Cl  0.93719207  0.95134471  0.92668795    -0.49900
C3190       C  0.01164271  0.85391577  0.00265597     0.42600
H3191       H  0.41669551  0.98336352  0.80134355     0.06800
N3192       N  0.88207744  0.84996579  0.96376422    -0.46600
C3193       C  0.85709401  0.80886392  0.92781553    -0.05200
C3194       C  0.85790579  0.77210019  0.93514916    -0.05200
C3195       C  0.85074740  0.75275459  0.90894300    -0.23300
C3196       C  0.84509166  0.77018897  0.87481852     0.18900
C3197       C  0.84214924  0.80716668  0.86825994     0.16100
C3198       C  0.84405068  0.82594273  0.89566714    -0.18400
C3199       C  0.84100223  0.82493885  0.83401600    -0.20200
C3200       C  0.83891537  0.80628583  0.80665291    -0.12700
C3201       C  0.83489621  0.76970171  0.81331299     0.03900
C3202       C  0.84233965  0.75159778  0.84710843    -0.24900
H3203       H  0.86819847  0.75845535  0.95972265     0.09000
H3204       H  0.85289393  0.72437497  0.91459600     0.12600
H3205       H  0.84377045  0.85439701  0.88992591     0.12500
H3206       H  0.84168921  0.85330139  0.82836888     0.12300
H3207       H  0.83842311  0.82114642  0.78066316     0.12800
H3208       H  0.84177682  0.72321373  0.85244035     0.14800
C3209       C  0.61258150  0.84360197  0.46944806    -0.05200
C3210       C  0.59364671  0.87252435  0.48113467    -0.05200
C3211       C  0.59254083  0.90558585  0.46096893    -0.23300
C3212       C  0.60762203  0.91027492  0.42718051     0.18900
C3213       C  0.62451113  0.88135836  0.41369137     0.16100
C3214       C  0.62809117  0.84835713  0.43526114    -0.18400
C3215       C  0.62953033  0.88116054  0.87524588    -0.20200
C3216       C  0.61729444  0.91130005  0.85260787    -0.12700
C3217       C  0.59915873  0.94118421  0.36951042     0.03900
C3218       C  0.60108518  0.94219210  0.40508161    -0.24900
H3219       H  0.58214909  0.87004047  0.50749351     0.09000
H3220       H  0.57848095  0.92715645  0.47138348     0.12600
H3221       H  0.64226779  0.82678078  0.42514298     0.12500
H3222       H  0.64049137  0.85854166  0.86452484     0.12300
H3223       H  0.61623725  0.91014145  0.82508570     0.12800
H3224       H  0.58571535  0.96312765  0.41550992     0.14800
C3225       C  0.78727997  0.43883156  0.94222396    -0.05200
C3226       C  0.75028029  0.45000501  0.93580916    -0.05200
C3227       C  0.73825652  0.45723442  0.90155673    -0.23300
C3228       C  0.76422979  0.45631903  0.87378094     0.18900
C3229       C  0.80067856  0.44260674  0.88037102     0.16100
C3230       C  0.81099991  0.43131555  0.91460460    -0.18400
C3231       C  0.82786402  0.44571445  0.85339588    -0.20200
C3232       C  0.82095221  0.46782314  0.82191169    -0.12700
C3233       C  0.78573619  0.48436389  0.81651754     0.03900
C3234       C  0.75628216  0.47409608  0.84059879    -0.24900
H3235       H  0.73590018  0.95147956  0.95504468     0.09000
H3236       H  0.71018161  0.46787977  0.89681454     0.12600
H3237       H  0.83983148  0.42311634  0.91950366     0.12500
H3238       H  0.85551595  0.43438025  0.85823476     0.12300
H3239       H  0.84342223  0.47327415  0.80288368     0.12800
H3240       H  0.72850944  0.48564526  0.83585591     0.14800
C3241       C  0.00050067  0.82410831  0.53156706    -0.05200
C3242       C  0.98036859  0.79982480  0.51770595    -0.05200
C3243       C  0.94239837  0.79769822  0.52599323    -0.23300
C3244       C  0.92591450  0.81819295  0.54953944     0.18900
C3245       C  0.94833991  0.83468994  0.57007759     0.16100
C3246       C  0.98725485  0.83256180  0.56416523    -0.18400
C3247       C  0.93121998  0.85544371  0.59324243    -0.20200
C3248       C  0.89209431  0.86035151  0.59524250    -0.12700
C3249       C  0.86930707  0.84451566  0.57423657     0.03900
C3250       C  0.88751367  0.82275513  0.55205847    -0.24900
H3251       H  0.98564560  0.78988251  0.99274473     0.09000
H3252       H  0.92550186  0.78322411  0.51134783     0.12600
H3253       H  0.00431322  0.84817670  0.57749298     0.12500
H3254       H  0.94805768  0.86813773  0.60952665     0.12300
H3255       H  0.87955562  0.87479053  0.61454073     0.12800
H3256       H  0.87219943  0.80652258  0.53810315     0.14800
C3257       C  0.51755435  0.62041947  0.82304452    -0.05200
C3258       C  0.49693806  0.61181759  0.79553603    -0.05200
C3259       C  0.45861456  0.61229613  0.79669741    -0.23300
C3260       C  0.43931646  0.61728363  0.82706254     0.18900
C3261       C  0.45882643  0.62426159  0.85595288     0.16100
C3262       C  0.49804069  0.62749451  0.85329993    -0.18400
C3263       C  0.43886109  0.62456171  0.88756944    -0.20200
C3264       C  0.40291332  0.61133805  0.89182809    -0.12700
C3265       C  0.38619157  0.59954336  0.86383210     0.03900
C3266       C  0.40168742  0.60957513  0.83047942    -0.24900
H3267       H  0.51087754  0.60578785  0.77194356     0.09000
H3268       H  0.44430669  0.60601164  0.77467962     0.12600
H3269       H  0.51313586  0.63339609  0.87497634     0.12500
H3270       H  0.45252538  0.63051561  0.91004178     0.12300
H3271       H  0.88916755  0.60286977  0.91854831     0.12800
H3272       H  0.38682489  0.10321070  0.80689695     0.14800
C3273       C  0.95342584  0.49097374  0.58130846    -0.05200
C3274       C  0.97071170  0.52089085  0.58762599    -0.05200
C3275       C  0.94927676  0.55191330  0.58774520    -0.23300
C3276       C  0.91112717  0.55220181  0.58147044     0.18900
C3277       C  0.89372203  0.52015507  0.58199836     0.16100
C3278       C  0.91502042  0.48884716  0.58831726    -0.18400
C3279       C  0.85704900  0.52027378  0.57137454    -0.20200
C3280       C  0.83700540  0.55195837  0.56264511    -0.12700
C3281       C  0.85199040  0.58354086  0.56816477     0.03900
C3282       C  0.89042564  0.58369633  0.57371017    -0.24900
H3283       H  0.00070473  0.52204827  0.58557315     0.09000
H3284       H  0.96282324  0.57599768  0.58907003     0.12600
H3285       H  0.89718871  0.46655635  0.08238735     0.12500
H3286       H  0.84403413  0.49599900  0.56947440     0.12300
H3287       H  0.80813845  0.55129506  0.55593537     0.12800
H3288       H  0.90404281  0.60809329  0.57344373     0.14800
C3289       C  0.53171994  0.83524342  0.73602756    -0.05200
C3290       C  0.50332324  0.81400253  0.75281822    -0.05200
C3291       C  0.46949224  0.82851457  0.76256238    -0.23300
C3292       C  0.46392846  0.86479748  0.75756714     0.18900
C3293       C  0.49194990  0.88672777  0.74087219     0.16100
C3294       C  0.52549450  0.87181359  0.72948165    -0.18400
C3295       C  0.48676530  0.92316644  0.73800883    -0.20200
C3296       C  0.45695367  0.93715760  0.75600397    -0.12700
C3297       C  0.43170747  0.91468474  0.77609555     0.03900
C3298       C  0.43266549  0.87929474  0.77285398    -0.24900
H3299       H  0.50722187  0.78569093  0.75776177     0.09000
H3300       H  0.44842955  0.81138842  0.77558660     0.12600
H3301       H  0.54650018  0.88882944  0.71652367     0.12500
H3302       H  0.50751629  0.94051568  0.72480747     0.12300
H3303       H  0.45640375  0.96486555  0.75734396     0.12800
H3304       H  0.91056608  0.86293966  0.78512653     0.14800
C3305       C  0.54956717  0.58030773  0.57395030    -0.05200
C3306       C  0.51955085  0.60265740  0.56022170    -0.05200
C3307       C  0.51187502  0.60711876  0.52536035    -0.23300
C3308       C  0.53104552  0.58675302  0.50392762     0.18900
C3309       C  0.55512702  0.55871284  0.51830824     0.16100
C3310       C  0.56487340  0.55584205  0.55343211    -0.18400
C3311       C  0.56883561  0.53476631  0.49692247    -0.20200
C3312       C  0.55873422  0.53671521  0.95955166    -0.12700
C3313       C  0.53104806  0.56522252  0.44972845     0.03900
C3314       C  0.52355048  0.59229287  0.46874926    -0.24900
H3315       H  0.50399329  0.62025333  0.57445506     0.09000
H3316       H  0.49099450  0.62686716  0.51510116     0.12600
H3317       H  0.58716211  0.53757045  0.56340206     0.12500
H3318       H  0.58707145  0.51274553  0.50725407     0.12300
H3319       H  0.56377289  0.02244731  0.94535957     0.12800
H3320       H  0.01160180  0.61735273  0.45393954     0.14800
loop_ 
_geom_bond_atom_site_label_1 
_geom_bond_atom_site_label_2 
_geom_bond_distance 
_geom_bond_site_symmetry_2 
_ccdc_geom_bond_type 
C1            C2   1.566       .  S
C1            C7   1.538       .  S
C1            C5   1.556       .  S
C1          C400   1.528       .  S
C2            H9   1.083       .  S
C2            C3   1.385       .  D
C3            C4   1.586       .  S
C3           C49   1.592       .  S
C4            C8   1.549       .  S
C4            C6   1.564       .  S
C4           H10   1.097       .  S
C5           H11   1.072       .  S
C5            C6   1.346       .  D
C6           C13   1.562       .  S
C7           H12   1.088       .  S
C7            C8   1.338       .  D
C8          N205   1.442       .  S
C13          C15   1.541       .  S
C13          C17   1.522       .  S
C13          C16   1.579       .  S
C14          C41   1.589       .  S
C14          C18   1.537       .  S
C14          C20   1.494       .  S
C14          C19   1.617       .  S
C15          C23   1.384       .  A
C15          C18   1.398       .  A
C16          C19   1.426       .  A
C16        C1687   1.403   1_455  A
C17          C31   1.369       .  A
C17          C20   1.373       .  A
C18          C21   1.386       .  A
C19        C1685   1.424   1_455  A
C20          C28   1.359       .  A
C21          N22   1.357       .  A
C21          H34   1.083       .  S
N22         C167   1.447       .  S
N22          C23   1.360       .  A
C23          H24   1.081       .  S
C25        C1679   1.425       .  A
C25          N26   1.385       .  A
C25          H35   1.081       .  S
N26          C27   1.367       .  A
N26         N108   1.452       .  S
C27        C1676   1.405       .  A
C27          H33   1.079       .  S
C28          N29   1.329       .  A
C28          H30   1.076       .  S
N29          C85   1.418       .  S
N29          C31   1.343       .  A
C31          H32   1.054       .  S
C36          C37   1.553       .  S
C36          C42   1.549       .  S
C36          C40   1.534       .  S
C36         C384   1.509       .  S
C37          H44   1.073       .  S
C37          C38   1.370       .  D
C38          C39   1.581       .  S
C38         C142   1.580       .  S
C39          C43   1.584       .  S
C39          C41   1.627       .  S
C39          H45   1.107       .  S
C40          H46   1.086       .  S
C40          C41   1.335       .  D
C42          H47   1.086       .  S
C42          C43   1.358       .  D
C43         N228   1.481       .  S
C48         C132   1.528       .  S
C48          C50   1.490       .  S
C48          C52   1.523       .  S
C48          C51   1.536       .  S
C49          C53   1.570       .  S
C49          C55   1.562       .  S
C49          C54   1.614       .  S
C50          C58   1.366       .  A
C50          C53   1.365       .  A
C51          C54   1.426       .  A
C51         C892   1.378   1_545  A
C52          C66   1.369       .  A
C52          C55   1.391       .  A
C53          C56   1.391       .  A
C54         C890   1.414   1_545  A
C55          C63   1.394       .  A
C56          N57   1.348       .  A
C56          H69   1.044       .  S
N57          C76   1.444       .  S
N57          C58   1.340       .  A
C58          H59   1.075       .  S
C60         C884   1.418       .  A
C60          N61   1.382       .  A
C60          H70   1.081       .  S
N61          C62   1.355       .  A
N61         N155   1.432       .  S
C62         C881   1.380       .  A
C62          H68   1.082       .  S
C63          N64   1.368       .  A
C63          H65   1.082       .  S
N64          C88   1.445       .  S
N64          C66   1.350       .  A
C66          H67   1.077       .  S
C71          C72   1.553       .  S
C71          C77   1.556       .  S
C71          C75   1.539       .  S
C71         C376   1.519       .  S
C72          H79   1.082       .  S
C72          C73   1.343       .  D
C73          C74   1.610       .  S
C73          C96   1.593       .  S
C74          C78   1.620       .  S
C74          C76   1.535       .  S
C74          H80   1.108       .  S
C75          H81   1.086       .  S
C75          C76   1.346       .  D
C77          H82   1.085       .  S
C77          C78   1.370       .  D
C78         C189   1.610       .  S
C83          C84   1.533       .  S
C83          C89   1.575       .  S
C83          C87   1.554       .  S
C83         C352   1.526       .  S
C84          H91   1.088       .  S
C84          C85   1.336       .  D
C85          C86   1.500       .  S
C86          C90   1.586       .  S
C86          C88   1.524       .  S
C86          H92   1.108       .  S
C87          H93   1.086       .  S
C87          C88   1.356       .  D
C89          H94   1.084       .  S
C89          C90   1.392       .  D
C90         C213   1.575       .  S
C95         C179   1.595       .  S
C95          C97   1.504       .  S
C95          C99   1.553       .  S
C95          C98   1.588       .  S
C96         C100   1.505       .  S
C96         C102   1.538       .  S
C96         C101   1.623       .  S
C97         C105   1.373       .  A
C97         C100   1.379       .  A
C98         C109   1.410       .  A
C98         C101   1.435       .  A
C99         C113   1.391       .  A
C99         C102   1.400       .  A
C100        C103   1.355       .  A
C101        C107   1.415       .  A
C102        C110   1.384       .  A
C103        N104   1.324       .  A
C103        H116   1.052       .  S
N104        C123   1.404       .  S
N104        C105   1.331       .  A
C105        H106   1.081       .  S
C107        N108   1.383       .  A
C107        H117   1.082       .  S
N108        C109   1.374       .  A
C109        H115   1.081       .  S
C110        N111   1.360       .  A
C110        H112   1.080       .  S
N111        C135   1.453       .  S
N111        C113   1.361       .  A
C113        H114   1.082       .  S
C118        C119   1.587       .  S
C118        C124   1.552       .  S
C118        C122   1.535       .  S
C118        C344   1.532       .  S
C119        H126   1.084       .  S
C119        C120   1.400       .  D
C120        C121   1.576       .  S
C120        C143   1.578       .  S
C121        C125   1.530       .  S
C121        C123   1.492       .  S
C121        H127   1.111       .  S
C122        H128   1.088       .  S
C122        C123   1.334       .  D
C124        H129   1.085       .  S
C124        C125   1.339       .  D
C125        N198   1.445       .  S
C130        C131   1.538       .  S
C130        C136   1.546       .  S
C130        C134   1.572       .  S
C130        C328   1.517   1_545  S
C131        H138   1.085   1_545  S
C131        C132   1.354       .  D
C132        C133   1.568       .  S
C133        C137   1.516       .  S
C133        C135   1.528       .  S
C133        H139   1.109       .  S
C134        H140   1.084       .  S
C134        C135   1.380       .  D
C136        H141   1.087       .  S
C136        C137   1.346       .  D
C137        N221   1.430       .  S
C142        C144   1.498       .  S
C142        C146   1.543       .  S
C142        C145   1.623       .  S
C143        C147   1.536       .  S
C143        C149   1.540       .  S
C143        C148   1.560       .  S
C144        C152   1.359       .  A
C144        C147   1.377       .  A
C145        C156   1.412       .  A
C145        C148   1.439       .  A
C146        C160   1.384       .  A
C146        C149   1.378       .  A
C147        C150   1.367       .  A
C148        C154   1.391       .  A
C149        C157   1.376       .  A
C150        N151   1.348       .  A
C150        H163   1.079       .  S
N151        C170   1.420       .  S
N151        C152   1.348       .  A
C152        H153   1.064       .  S
C154        N155   1.366       .  A
C154        H164   1.082       .  S
N155        C156   1.372       .  A
C156        H162   1.078       .  S
C157        N158   1.359       .  A
C157        H159   1.081       .  S
N158        C182   1.461       .  S
N158        C160   1.356       .  A
C160        H161   1.064       .  S
C165        C166   1.558   1_556  S
C165        C171   1.549       .  S
C165        C169   1.530   1_556  S
C165        C304   1.521       .  S
C166        H173   1.072       .  S
C166        C167   1.373       .  D
C167        C168   1.520       .  S
C168        C172   1.559       .  S
C168        C170   1.519       .  S
C168        H174   1.109       .  S
C169        H175   1.088       .  S
C169        C170   1.334       .  D
C171        H176   1.082       .  S
C171        C172   1.371   1_556  D
C172        C190   1.523       .  S
C177        C178   1.556       .  S
C177        C183   1.536       .  S
C177        C181   1.544       .  S
C177        C296   1.532       .  S
C178        H185   1.085       .  S
C178        C179   1.374       .  D
C179        C180   1.613       .  S
C180        C184   1.573       .  S
C180        C182   1.559       .  S
C180        H186   1.110       .  S
C181        H187   1.081       .  S
C181        C182   1.356       .  D
C183        H188   1.073       .  S
C183        C184   1.344       .  D
C184        C212   1.556       .  S
C189        C191   1.561       .  S
C189        C193   1.537       .  S
C189        C192   1.636   1_554  S
C190        C194   1.500       .  S
C190        C196   1.509       .  S
C190        C195   1.539   1_554  S
C191        C199   1.394       .  A
C191        C194   1.379       .  A
C192        C195   1.433       .  A
C192        C618   1.429       .  A
C193        C207   1.388       .  A
C193        C196   1.387       .  A
C194        C197   1.367       .  A
C195        C616   1.379       .  A
C196        C204   1.367       .  A
C197        N198   1.339       .  A
C197        H210   1.072       .  S
N198        C199   1.368       .  A
C199        H200   1.082       .  S
C201        C610   1.376       .  A
C201        N202   1.351       .  A
C201        H211   1.082       .  S
N202        C203   1.388       .  A
N202        N225   1.433       .  S
C203        C607   1.424       .  A
C203        H209   1.082       .  S
C204        N205   1.336       .  A
C204        H206   1.067       .  S
N205        C207   1.357       .  A
C207        H208   1.082       .  S
C212        C214   1.516       .  S
C212        C216   1.544       .  S
C212        C215   1.589       .  S
C213        C217   1.525       .  S
C213        C219   1.549       .  S
C213        C218   1.594       .  S
C214        C222   1.369       .  A
C214        C217   1.370       .  A
C215        C226   1.401       .  A
C215        C218   1.434       .  A
C216        C230   1.390       .  A
C216        C219   1.379       .  A
C217        C220   1.376       .  A
C218        C224   1.408       .  A
C219        C227   1.391       .  A
C220        N221   1.345       .  A
C220        H233   1.080       .  S
N221        C222   1.356       .  A
C222        H223   1.063       .  S
C224        N225   1.378       .  A
C224        H234   1.082       .  S
N225        C226   1.359       .  A
C226        H232   1.077       .  S
C227        N228   1.363       .  A
C227        H229   1.079       .  S
N228        C230   1.367       .  A
C230        H231   1.077       .  S
C235        N253   1.351       .  A
C235       C1932   1.471       .  S
C235       C2387   1.464       .  S
N236        N253   1.317       .  A
N236        N258   1.314       .  A
N236       Co273   2.060       .  S
C237       N1092   1.340       .  A
C237        H282   1.082       .  S
C237       C1935   1.462       .  S
H238        C279   1.082       .  S
C239        N263   1.337       .  A
C239        H268   1.079       .  S
C239       C1073   1.455       .  S
Co240       N258   2.086       .  S
Co240       N248   2.071       .  S
Co240       N280   2.058       .  S
Co240       N256   2.108       .  S
Co240      Cl284   2.408       .  S
N241       C1109   1.320       .  A
N241        N248   1.315       .  A
N241       Co242   2.056       .  S
Co242       N245   2.076       .  S
Co242       N262   2.050       .  S
Co242       N249   2.097       .  S
Co242      Cl284   2.449       .  S
C243        N281   1.356   1_565  A
C243       C1069   1.462       .  S
C243        C783   1.458       .  S
N244        N251   1.311       .  A
N244        N274   1.304       .  A
N244       Co277   2.053       .  S
N245        N263   1.305       .  A
N245       N1111   1.320       .  A
N246       C1105   1.355       .  A
N246       N1916   1.318       .  A
H247        C272   1.081       .  S
N248       N1929   1.327       .  A
N249        N267   1.315       .  A
N249       N1084   1.320       .  A
C250        N254   1.357       .  A
C250        C320   1.467       .  S
C250       C1108   1.463       .  S
N251        C266   1.352       .  A
N251       Co273   2.105       .  S
C252       N1940   1.336       .  A
C252        H286   1.082       .  S
C252       C1915   1.462       .  S
N254       N1079   1.321       .  A
C255        N276   1.357       .  A
C255       C1912   1.462       .  S
C255       C2052   1.467       .  S
N256        N262   1.318       .  A
N256       N1906   1.318       .  A
N257        C283   1.321       .  A
N257        N259   1.311       .  A
N257       Co273   2.015       .  S
N258       C1932   1.346       .  A
N259        N287   1.330       .  A
N259       Co277   2.108       .  S
H260        C283   1.082       .  S
H261        C278   1.079       .  S
N262       C1067   1.340       .  A
N263       Co277   2.039       .  S
N264        N276   1.318       .  A
N264        N280   1.319       .  A
N264       Co273   2.096       .  S
C265       N1099   1.354       .  A
C265       C1939   1.456   1_455  S
C265        C823   1.459       .  S
C266        H270   1.081       .  S
C266        C285   1.500       .  S
N267        C278   1.338       .  A
N267       Co277   2.063       .  S
N269       C1095   1.350       .  A
N269       N1908   1.325   1_455  A
C271        N287   1.358       .  A
C271        C283   1.450       .  S
C271        C288   1.463       .  S
C272       N1918   1.345       .  A
C272       C1895   1.471       .  S
Co273      Cl284   2.474       .  S
N274        C285   1.333       .  A
C275       N1076   1.355       .  A
C275        C360   1.488       .  S
C275       C1897   1.462       .  S
Co277      Cl284   2.396       .  S
C278       C1080   1.464       .  S
C279       N1071   1.322       .  A
C279       C1925   1.456       .  S
N280       C1912   1.334       .  A
N281       N1075   1.318   1_545  A
C285        C751   1.489       .  S
C288        C289   1.402       .  A
C288        C293   1.405       .  A
C289        C290   1.401       .  A
C289        H298   1.083       .  S
C290        C291   1.405       .  A
C290        H299   1.084       .  S
C291        C297   1.403       .  A
C291        C292   1.411       .  A
C292        C294   1.398       .  A
C292        C293   1.396       .  A
C293        H300   1.086       .  S
C294        C295   1.393       .  A
C294        H301   1.084       .  S
C295        C296   1.410       .  A
C295        H302   1.079       .  S
C296        C297   1.414       .  A
C297        H303   1.085       .  S
C304        C305   1.414       .  A
C304        C309   1.409       .  A
C305        C306   1.385       .  A
C305        H314   1.083   1_556  S
C306        C307   1.391       .  A
C306        H315   1.084       .  S
C307        C313   1.397       .  A
C307        C308   1.417       .  A
C308        C309   1.407       .  A
C308        C725   1.404       .  A
C309        H316   1.081       .  S
C310        C311   1.404       .  A
C310        C723   1.405       .  A
C310        H317   1.083       .  S
C311        C727   1.406       .  A
C311        H318   1.083       .  S
C312        C313   1.396       .  A
C312        C726   1.407       .  A
C312       C2310   1.464       .  S
C313        H319   1.086       .  S
C320        C321   1.400       .  A
C320        C325   1.407       .  A
C321        C322   1.400       .  A
C321       H1160   1.083       .  S
C322        C323   1.407       .  A
C322        H331   1.084       .  S
C323        C329   1.396       .  A
C323        C324   1.409       .  A
C324        C326   1.402       .  A
C324        C325   1.393       .  A
C325        H332   1.085       .  S
C326        C327   1.398       .  A
C326        H333   1.080       .  S
C327        C328   1.400       .  A
C327        H334   1.079       .  S
C328        C329   1.415       .  A
C329        H335   1.085       .  S
H330       C1151   1.083       .  S
C336        C337   1.402       .  A
C336        C341   1.422       .  A
C336        C700   1.488       .  S
C337        C338   1.395       .  A
C337        H761   1.083   1_554  S
C338        C339   1.407       .  A
C338        H347   1.084       .  S
C339        C345   1.386       .  A
C339        C340   1.403       .  A
C340        C342   1.412       .  A
C340        C341   1.410       .  A
C341        H348   1.085       .  S
C342        C343   1.412       .  A
C342        H349   1.083       .  S
C343        C344   1.408       .  A
C343        H350   1.083       .  S
C344        C345   1.427       .  A
C345        H351   1.079       .  S
H346        C752   1.083       .  S
C352        C353   1.418   1_455  A
C352        C357   1.409   1_455  A
C353        C354   1.376       .  A
C353        H362   1.084   1_655  S
C354        C355   1.385       .  A
C354        H363   1.085       .  S
C355        C361   1.395       .  A
C355        C356   1.419       .  A
C356        C358   1.404       .  A
C356        C357   1.420       .  A
C357        H364   1.083   1_655  S
C358        C359   1.407       .  A
C358        H365   1.083       .  S
C359        C360   1.416       .  A
C359       H2026   1.082       .  S
C360        C361   1.394       .  A
C361       H1197   1.086       .  S
H366       C2019   1.081       .  S
H367       C1191   1.086       .  S
C368        C369   1.400   1_565  A
C368        C373   1.404       .  A
C368        C658   1.457       .  S
C369        C370   1.395       .  A
C369        H378   1.083       .  S
C370        C371   1.400       .  A
C370        H379   1.078       .  S
C371        C377   1.389       .  A
C371        C372   1.410       .  A
C372        C374   1.399       .  A
C372        C373   1.393   1_545  A
C373        H795   1.086       .  S
C374        C375   1.393       .  A
C374        H381   1.084   1_545  S
C375        C376   1.411       .  A
C375        H382   1.083       .  S
C376        C377   1.407       .  A
C377        H383   1.082       .  S
H380        C788   1.086       .  S
C384        C385   1.411       .  A
C384        C389   1.406       .  A
C385        C386   1.383   1_455  A
C385        H394   1.084       .  S
C386        C387   1.392       .  A
C386        H395   1.084       .  S
C387        C393   1.390       .  A
C387        C388   1.415       .  A
C388        C390   1.402       .  A
C388        C389   1.401   1_655  A
C389        H396   1.079       .  S
C390        C391   1.397       .  A
C390        H397   1.084   1_655  S
C391        C392   1.409       .  A
C391        H398   1.082       .  S
C392        C393   1.395       .  A
C392       C1915   1.466       .  S
C393       H2059   1.086       .  S
H399       C2053   1.086       .  S
C400        C401   1.415       .  A
C400        C405   1.419       .  A
C401        C402   1.380       .  A
C401        H410   1.073       .  S
C402        C403   1.387       .  A
C402        H411   1.085   1_455  S
C403        C409   1.389   1_554  A
C403        C404   1.411       .  A
C404        C406   1.408   1_554  A
C404        C405   1.412       .  A
C405        H412   1.084       .  S
C406        C822   1.408       .  A
C406        H413   1.083   1_556  S
C407        C821   1.406       .  A
C407        C823   1.407       .  A
C407       H1244   1.083       .  S
C408        C409   1.394       .  A
C408        C822   1.408       .  A
C408        C680   1.463       .  S
C409       H2075   1.087       .  S
H414       C1237   1.083       .  S
H415       C2069   1.087       .  S
C416        C417   1.561       .  S
C416        C422   1.541       .  S
C416        C420   1.552       .  S
C416        C815   1.523       .  S
C417        H424   1.084       .  S
C417        C418   1.381       .  D
C418        C419   1.591       .  S
C418        C464   1.590       .  S
C419        C423   1.550       .  S
C419        C421   1.569       .  S
C419        H425   1.099       .  S
C420        H426   1.072       .  S
C420        C421   1.343       .  D
C421        C428   1.562       .  S
C422        H427   1.087       .  S
C422        C423   1.342       .  D
C423        N620   1.446       .  S
C428        C430   1.542       .  S
C428        C432   1.520       .  S
C428        C431   1.585       .  S
C429        C456   1.583       .  S
C429        C433   1.538       .  S
C429        C435   1.493       .  S
C429        C434   1.613       .  S
C430        C438   1.385       .  A
C430        C433   1.396       .  A
C431       C2102   1.405   1_455  A
C431        C434   1.425       .  A
C432        C446   1.368       .  A
C432        C435   1.373       .  A
C433        C436   1.386       .  A
C434       C2100   1.423   1_455  A
C435        C443   1.360       .  A
C436        N437   1.358       .  A
C436        H449   1.083       .  S
N437        C582   1.449       .  S
N437        C438   1.361       .  A
C438        H439   1.081       .  S
C440       C2094   1.420       .  A
C440        N441   1.382       .  A
C440        H450   1.081       .  S
N441        C442   1.366       .  A
N441        N523   1.448       .  S
C442       C2091   1.401       .  A
C442        H448   1.079       .  S
C443        N444   1.328       .  A
C443        H445   1.077       .  S
N444        C500   1.416       .  S
N444        C446   1.341       .  A
C446        H447   1.053       .  S
C451        C452   1.554       .  S
C451        C457   1.549       .  S
C451        C455   1.532       .  S
C451        C799   1.508       .  S
C452        H459   1.074       .  S
C452        C453   1.374       .  D
C453        C454   1.576       .  S
C453        C557   1.577       .  S
C454        C458   1.585       .  S
C454        C456   1.625       .  S
C454        H460   1.106       .  S
C455        H461   1.086       .  S
C455        C456   1.333       .  D
C457        H462   1.086       .  S
C457        C458   1.357       .  D
C458        N643   1.483       .  S
C463        C547   1.524       .  S
C463        C465   1.492       .  S
C463        C467   1.525       .  S
C463        C466   1.538       .  S
C464        C468   1.566       .  S
C464        C470   1.556       .  S
C464        C469   1.620       .  S
C465        C473   1.368       .  A
C465        C468   1.363       .  A
C466       C1307   1.379   1_545  A
C466        C469   1.427       .  A
C467        C481   1.371       .  A
C467        C470   1.388       .  A
C468        C471   1.387       .  A
C469       C1305   1.418   1_545  A
C470        C478   1.393       .  A
C471        N472   1.350       .  A
C471        H484   1.044       .  S
N472        C491   1.445       .  S
N472        C473   1.343       .  A
C473        H474   1.075       .  S
C475       C1299   1.413       .  A
C475        N476   1.379       .  A
C475        H485   1.081       .  S
N476        C477   1.354       .  A
N476        N570   1.427       .  S
C477       C1296   1.377       .  A
C477        H483   1.081       .  S
C478        N479   1.367       .  A
C478        H480   1.082       .  S
N479        C503   1.446       .  S
N479        C481   1.351       .  A
C481        H482   1.077       .  S
C486        C487   1.554       .  S
C486        C492   1.561       .  S
C486        C490   1.541       .  S
C486        C791   1.527       .  S
C487        H494   1.083       .  S
C487        C488   1.348       .  D
C488        C489   1.605       .  S
C488        C511   1.590       .  S
C489        C493   1.615       .  S
C489        C491   1.536       .  S
C489        H495   1.108       .  S
C490        H496   1.086       .  S
C490        C491   1.347       .  D
C492        H497   1.085       .  S
C492        C493   1.374       .  D
C493        C604   1.614       .  S
C498        C499   1.532       .  S
C498        C504   1.577       .  S
C498        C502   1.556       .  S
C498        C767   1.527       .  S
C499        H506   1.088       .  S
C499        C500   1.336       .  D
C500        C501   1.499       .  S
C501        C505   1.586       .  S
C501        C503   1.522       .  S
C501        H507   1.108       .  S
C502        H508   1.086       .  S
C502        C503   1.357       .  D
C504        H509   1.084       .  S
C504        C505   1.393       .  D
C505        C628   1.576       .  S
C510        C594   1.600       .  S
C510        C512   1.505       .  S
C510        C514   1.553       .  S
C510        C513   1.586       .  S
C511        C515   1.507       .  S
C511        C517   1.538       .  S
C511        C516   1.615       .  S
C512        C520   1.369       .  A
C512        C515   1.381       .  A
C513        C524   1.407       .  A
C513        C516   1.434       .  A
C514        C528   1.390       .  A
C514        C517   1.401       .  A
C515        C518   1.358       .  A
C516        C522   1.410       .  A
C517        C525   1.383       .  A
C518        N519   1.326       .  A
C518        H531   1.054       .  S
N519        C538   1.404       .  S
N519        C520   1.331       .  A
C520        H521   1.081       .  S
C522        N523   1.380       .  A
C522        H532   1.082       .  S
N523        C524   1.373       .  A
C524        H530   1.081       .  S
C525        N526   1.360       .  A
C525        H527   1.079       .  S
N526        C550   1.452       .  S
N526        C528   1.361       .  A
C528        H529   1.081       .  S
C533        C534   1.585       .  S
C533        C539   1.555       .  S
C533        C537   1.531       .  S
C533        C759   1.529       .  S
C534        H541   1.084       .  S
C534        C535   1.397       .  D
C535        C536   1.577       .  S
C535        C558   1.578       .  S
C536        C540   1.530       .  S
C536        C538   1.493       .  S
C536        H542   1.110       .  S
C537        H543   1.089       .  S
C537        C538   1.334       .  D
C539        H544   1.086       .  S
C539        C540   1.345       .  D
C540        N613   1.448       .  S
C545        C546   1.537       .  S
C545        C551   1.547       .  S
C545        C549   1.570       .  S
C545        C743   1.517   1_545  S
C546        H553   1.085   1_545  S
C546        C547   1.353       .  D
C547        C548   1.566       .  S
C548        C552   1.519       .  S
C548        C550   1.529       .  S
C548        H554   1.110       .  S
C549        H555   1.084       .  S
C549        C550   1.381       .  D
C551        H556   1.087       .  S
C551        C552   1.346       .  D
C552        N636   1.433       .  S
C557        C559   1.498       .  S
C557        C561   1.542       .  S
C557        C560   1.615       .  S
C558        C562   1.533       .  S
C558        C564   1.538       .  S
C558        C563   1.558       .  S
C559        C567   1.357       .  A
C559        C562   1.379       .  A
C560        C571   1.406       .  A
C560        C563   1.439       .  A
C561        C575   1.382       .  A
C561        C564   1.378       .  A
C562        C565   1.364       .  A
C563        C569   1.388       .  A
C564        C572   1.374       .  A
C565        N566   1.346       .  A
C565        H578   1.079       .  S
N566        C585   1.416       .  S
N566        C567   1.348       .  A
C567        H568   1.063       .  S
C569        N570   1.365       .  A
C569        H579   1.082       .  S
N570        C571   1.369       .  A
C571        H577   1.078       .  S
C572        N573   1.359       .  A
C572        H574   1.081       .  S
N573        C597   1.460       .  S
N573        C575   1.355       .  A
C575        H576   1.064       .  S
C580        C581   1.562       .  S
C580        C586   1.555       .  S
C580        C584   1.527       .  S
C580        C719   1.526       .  S
C581        H588   1.075       .  S
C581        C582   1.374       .  D
C582        C583   1.520       .  S
C583        C587   1.558       .  S
C583        C585   1.516       .  S
C583        H589   1.109       .  S
C584        H590   1.088       .  S
C584        C585   1.331       .  D
C586        H591   1.083       .  S
C586        C587   1.378       .  D
C587        C605   1.531       .  S
C592        C593   1.561       .  S
C592        C598   1.534       .  S
C592        C596   1.545       .  S
C592        C711   1.536       .  S
C593        H600   1.084       .  S
C593        C594   1.378       .  D
C594        C595   1.612       .  S
C595        C599   1.574       .  S
C595        C597   1.558       .  S
C595        H601   1.110       .  S
C596        H602   1.080       .  S
C596        C597   1.355       .  D
C598        H603   1.073       .  S
C598        C599   1.343       .  D
C599        C627   1.555       .  S
C604        C606   1.566       .  S
C604        C608   1.539       .  S
C604        C607   1.629       .  S
C605        C609   1.503       .  S
C605        C611   1.513       .  S
C605        C610   1.538       .  S
C606        C614   1.397       .  A
C606        C609   1.382       .  A
C607        C610   1.433       .  A
C608        C622   1.389       .  A
C608        C611   1.389       .  A
C609        C612   1.368       .  A
C611        C619   1.369       .  A
C612        N613   1.341       .  A
C612        H625   1.073       .  S
N613        C614   1.370       .  A
C614        H615   1.082       .  S
C616        N617   1.351       .  A
C616        H626   1.082       .  S
N617        C618   1.390       .  A
N617        N640   1.438       .  S
C618        H624   1.082       .  S
C619        N620   1.337       .  A
C619        H621   1.067       .  S
N620        C622   1.357       .  A
C622        H623   1.082       .  S
C627        C629   1.517       .  S
C627        C631   1.543       .  S
C627        C630   1.594       .  S
C628        C632   1.527       .  S
C628        C634   1.551       .  S
C628        C633   1.597       .  S
C629        C637   1.370       .  A
C629        C632   1.368       .  A
C630        C641   1.405       .  A
C630        C633   1.434       .  A
C631        C645   1.390       .  A
C631        C634   1.378       .  A
C632        C635   1.377       .  A
C633        C639   1.410       .  A
C634        C642   1.393       .  A
C635        N636   1.346       .  A
C635        H648   1.080       .  S
N636        C637   1.356       .  A
C637        H638   1.063       .  S
C639        N640   1.379       .  A
C639        H649   1.082       .  S
N640        C641   1.362       .  A
C641        H647   1.077       .  S
C642        N643   1.364       .  A
C642        H644   1.079       .  S
N643        C645   1.367       .  A
C645        H646   1.077       .  S
C650        N668   1.352       .  A
C650       C2347   1.470       .  S
C650       C1972   1.463       .  S
N651        N668   1.316       .  A
N651        N673   1.314       .  A
N651       Co688   2.058       .  S
C652       N1507   1.342       .  A
C652        H697   1.082       .  S
C652       C2350   1.464       .  S
H653        C694   1.082       .  S
C654        N678   1.339       .  A
C654        H683   1.080       .  S
C654       C1488   1.463       .  S
Co655       N673   2.082       .  S
Co655       N663   2.064       .  S
Co655       N695   2.058       .  S
Co655       N671   2.109       .  S
Co655      Cl699   2.415       .  S
N656       C1524   1.323       .  A
N656        N663   1.315       .  A
N656       Co657   2.064       .  S
Co657       N660   2.066       .  S
Co657       N677   2.048       .  S
Co657       N664   2.107       .  S
Co657      Cl699   2.437       .  S
C658        N696   1.360   1_565  A
C658       C1484   1.456       .  S
N659        N666   1.312       .  A
N659        N689   1.305   1_556  A
N659       Co692   2.053       .  S
N660        N678   1.305   1_556  A
N660       N1526   1.317   1_556  A
N661       C1520   1.356       .  A
N661       N2331   1.318       .  A
H662        C687   1.082       .  S
N663       N2344   1.326       .  A
N664        N682   1.316       .  A
N664       N1499   1.321       .  A
C665        N669   1.356       .  A
C665       C1523   1.462       .  S
C665        C735   1.468       .  S
N666        C681   1.351       .  A
N666       Co688   2.107       .  S
C667       N2355   1.333       .  A
C667        H701   1.082       .  S
C667       C2330   1.460       .  S
N669       N1494   1.321       .  A
C670        N691   1.357       .  A
C670       C2327   1.461       .  S
C670       C2467   1.468       .  S
N671       N2321   1.318       .  A
N671        N677   1.319       .  A
N672        C698   1.322       .  A
N672        N674   1.312       .  A
N672       Co688   2.014       .  S
N673       C2347   1.344       .  A
N674        N702   1.332       .  A
N674       Co692   2.121       .  S
H675        C698   1.082       .  S
H676        C693   1.080       .  S
N677       C1482   1.341       .  A
N678       Co692   2.046   1_554  S
N679        N691   1.319       .  A
N679        N695   1.320       .  A
N679       Co688   2.100       .  S
C680       N1514   1.354       .  A
C680       C2354   1.456   1_455  S
C681        H685   1.082       .  S
C681        C700   1.498   1_556  S
N682        C693   1.337       .  A
N682       Co692   2.057       .  S
N684       C1510   1.353       .  A
N684       N2323   1.327   1_455  A
C686        N702   1.361       .  A
C686        C698   1.448       .  S
C686        C703   1.466       .  S
C687       N2333   1.344       .  A
C687       C2310   1.469       .  S
Co688      Cl699   2.468       .  S
N689        C700   1.334       .  A
C690       N1491   1.356       .  A
C690       C2312   1.463       .  S
C690        C775   1.488       .  S
Co692      Cl699   2.410       .  S
C693       C1495   1.463       .  S
C694       N1486   1.317       .  A
C694       C2340   1.457       .  S
N695       C2327   1.335       .  A
N696       N1490   1.320   1_545  A
C703        C704   1.405       .  A
C703        C708   1.404       .  A
C704        C705   1.403       .  A
C704        H713   1.083       .  S
C705        C706   1.406       .  A
C705        H714   1.083       .  S
C706        C712   1.407       .  A
C706        C707   1.411       .  A
C707        C709   1.397       .  A
C707        C708   1.398       .  A
C708        H715   1.086       .  S
C709        C710   1.393       .  A
C709        H716   1.084       .  S
C710        C711   1.412       .  A
C710        H717   1.078       .  S
C711        C712   1.416       .  A
C712        H718   1.085       .  S
C719        C720   1.415       .  A
C719        C724   1.410       .  A
C720        C721   1.385       .  A
C720        H729   1.083       .  S
C721        C722   1.391       .  A
C721        H730   1.084       .  S
C722        C728   1.399       .  A
C722        C723   1.417       .  A
C723        C724   1.411       .  A
C724        H731   1.081       .  S
C725        C726   1.403       .  A
C725        H732   1.083       .  S
C726        H733   1.083       .  S
C727        C728   1.398       .  A
C727       C1895   1.464       .  S
C728        H734   1.085       .  S
C735        C736   1.399       .  A
C735        C740   1.408       .  A
C736        C737   1.399       .  A
C736       H1575   1.083       .  S
C737        C738   1.406       .  A
C737        H746   1.084       .  S
C738        C744   1.395       .  A
C738        C739   1.409       .  A
C739        C741   1.403       .  A
C739        C740   1.395       .  A
C740        H747   1.085       .  S
C741        C742   1.399       .  A
C741        H748   1.080       .  S
C742        C743   1.401       .  A
C742        H749   1.080       .  S
C743        C744   1.414       .  A
C744        H750   1.085       .  S
H745       C1566   1.083       .  S
C751        C752   1.402       .  A
C751        C756   1.424       .  A
C752        C753   1.395       .  A
C753        C754   1.406       .  A
C753        H762   1.084       .  S
C754        C760   1.386       .  A
C754        C755   1.403       .  A
C755        C757   1.413       .  A
C755        C756   1.411       .  A
C756        H763   1.085       .  S
C757        C758   1.413       .  A
C757        H764   1.083       .  S
C758        C759   1.407       .  A
C758        H765   1.082       .  S
C759        C760   1.424       .  A
C760        H766   1.081       .  S
C767        C768   1.419   1_455  A
C767        C772   1.408   1_455  A
C768        C769   1.377       .  A
C768        H777   1.084   1_655  S
C769        C770   1.385       .  A
C769        H778   1.085       .  S
C770        C776   1.396       .  A
C770        C771   1.419       .  A
C771        C773   1.403       .  A
C771        C772   1.420       .  A
C772        H779   1.083   1_655  S
C773        C774   1.407       .  A
C773        H780   1.083       .  S
C774        C775   1.416       .  A
C774       H2441   1.082       .  S
C775        C776   1.394       .  A
C776       H1612   1.086       .  S
H781       C2434   1.082       .  S
H782       C1606   1.086       .  S
C783        C784   1.402   1_565  A
C783        C788   1.403       .  A
C784        C785   1.398       .  A
C784        H793   1.082       .  S
C785        C786   1.403       .  A
C785        H794   1.081       .  S
C786        C792   1.396       .  A
C786        C787   1.411       .  A
C787        C789   1.398       .  A
C787        C788   1.395   1_545  A
C789        C790   1.393       .  A
C789        H796   1.084   1_545  S
C790        C791   1.411       .  A
C790        H797   1.083       .  S
C791        C792   1.411       .  A
C792        H798   1.082       .  S
C799        C800   1.412       .  A
C799        C804   1.405       .  A
C800        C801   1.381   1_455  A
C800        H809   1.084       .  S
C801        C802   1.390       .  A
C801        H810   1.084       .  S
C802        C808   1.390       .  A
C802        C803   1.416       .  A
C803        C805   1.401       .  A
C803        C804   1.402   1_655  A
C804        H811   1.080       .  S
C805        C806   1.397       .  A
C805        H812   1.084   1_655  S
C806        C807   1.410       .  A
C806        H813   1.082       .  S
C807        C808   1.393       .  A
C807       C2330   1.467       .  S
C808       H2474   1.086       .  S
H814       C2468   1.086       .  S
C815        C816   1.416       .  A
C815        C820   1.415       .  A
C816        C817   1.379       .  A
C816        H825   1.073       .  S
C817        C818   1.387       .  A
C817        H826   1.085   1_455  S
C818        C824   1.387       .  A
C818        C819   1.411       .  A
C819        C821   1.406       .  A
C819        C820   1.409       .  A
C820        H827   1.084       .  S
C821        H828   1.083       .  S
C822       H1659   1.083       .  S
C823        C824   1.393       .  A
C824       H2490   1.087       .  S
H829       C1652   1.083       .  S
H830       C2484   1.087       .  S
C831        C832   1.561       .  S
C831        C837   1.539       .  S
C831        C835   1.555       .  S
C831       C1230   1.522       .  S
C832        H839   1.084       .  S
C832        C833   1.381       .  D
C833        C834   1.591       .  S
C833        C879   1.589       .  S
C834        C838   1.547       .  S
C834        C836   1.570       .  S
C834        H840   1.098       .  S
C835        H841   1.074       .  S
C835        C836   1.346       .  D
C836        C843   1.567       .  S
C837        H842   1.088       .  S
C837        C838   1.340       .  D
C838       N1035   1.443       .  S
C843        C845   1.544       .  S
C843        C847   1.521       .  S
C843        C846   1.583       .  S
C844        C871   1.589       .  S
C844        C848   1.539       .  S
C844        C850   1.494       .  S
C844        C849   1.613       .  S
C845        C853   1.385       .  A
C845        C848   1.399       .  A
C846       C2517   1.404   1_455  A
C846        C849   1.426       .  A
C847        C861   1.368       .  A
C847        C850   1.374       .  A
C848        C851   1.387       .  A
C849       C2515   1.423   1_455  A
C850        C858   1.359       .  A
C851        N852   1.358       .  A
C851        H864   1.082       .  S
N852        C997   1.449       .  S
N852        C853   1.362       .  A
C853        H854   1.081       .  S
C855       C2509   1.419       .  A
C855        N856   1.381       .  A
C855        H865   1.081       .  S
N856        C857   1.367       .  A
N856        N938   1.447       .  S
C857       C2506   1.401       .  A
C857        H863   1.080       .  S
C858        N859   1.328       .  A
C858        H860   1.076       .  S
N859        C915   1.416       .  S
N859        C861   1.341       .  A
C861        H862   1.054       .  S
C866        C867   1.556       .  S
C866        C872   1.550       .  S
C866        C870   1.533       .  S
C866       C1214   1.511       .  S
C867        H874   1.075       .  S
C867        C868   1.374       .  D
C868        C869   1.578       .  S
C868        C972   1.579       .  S
C869        C873   1.586       .  S
C869        C871   1.626       .  S
C869        H875   1.106       .  S
C870        H876   1.086       .  S
C870        C871   1.334       .  D
C872        H877   1.086       .  S
C872        C873   1.358       .  D
C873       N1058   1.484       .  S
C878        C962   1.525       .  S
C878        C880   1.492       .  S
C878        C882   1.526       .  S
C878        C881   1.538       .  S
C879        C883   1.567       .  S
C879        C885   1.555       .  S
C879        C884   1.622       .  S
C880        C888   1.368       .  A
C880        C883   1.363       .  A
C881        C884   1.427       .  A
C882        C896   1.372       .  A
C882        C885   1.388       .  A
C883        C886   1.388       .  A
C885        C893   1.393       .  A
C886        N887   1.349       .  A
C886        H899   1.045       .  S
N887        C906   1.445       .  S
N887        C888   1.342       .  A
C888        H889   1.075       .  S
C890        N891   1.379       .  A
C890        H900   1.081       .  S
N891        C892   1.354       .  A
N891        N985   1.428       .  S
C892        H898   1.081       .  S
C893        N894   1.367       .  A
C893        H895   1.082       .  S
N894        C918   1.446       .  S
N894        C896   1.352       .  A
C896        H897   1.077       .  S
C901        C902   1.553       .  S
C901        C907   1.555       .  S
C901        C905   1.542       .  S
C901       C1206   1.521       .  S
C902        H909   1.082       .  S
C902        C903   1.347       .  D
C903        C904   1.604       .  S
C903        C926   1.588       .  S
C904        C908   1.615       .  S
C904        C906   1.535       .  S
C904        H910   1.108       .  S
C905        H911   1.086       .  S
C905        C906   1.348       .  D
C907        H912   1.085       .  S
C907        C908   1.369       .  D
C908       C1019   1.606       .  S
C913        C914   1.531       .  S
C913        C919   1.577       .  S
C913        C917   1.555       .  S
C913       C1182   1.526       .  S
C914        H921   1.088       .  S
C914        C915   1.336       .  D
C915        C916   1.497       .  S
C916        C920   1.586       .  S
C916        C918   1.522       .  S
C916        H922   1.107       .  S
C917        H923   1.086       .  S
C917        C918   1.358       .  D
C919        H924   1.084       .  S
C919        C920   1.392       .  D
C920       C1043   1.576       .  S
C925       C1009   1.593       .  S
C925        C927   1.505       .  S
C925        C929   1.550       .  S
C925        C928   1.585       .  S
C926        C930   1.505       .  S
C926        C932   1.535       .  S
C926        C931   1.614       .  S
C927        C935   1.373       .  A
C927        C930   1.381       .  A
C928        C939   1.407       .  A
C928        C931   1.433       .  A
C929        C943   1.389       .  A
C929        C932   1.402       .  A
C930        C933   1.355       .  A
C931        C937   1.410       .  A
C932        C940   1.383       .  A
C933        N934   1.325       .  A
C933        H946   1.053       .  S
N934        C953   1.405       .  S
N934        C935   1.333       .  A
C935        H936   1.081       .  S
C937        N938   1.380       .  A
C937        H947   1.082       .  S
N938        C939   1.373       .  A
C939        H945   1.081       .  S
C940        N941   1.359       .  A
C940        H942   1.080       .  S
N941        C965   1.449       .  S
N941        C943   1.359       .  A
C943        H944   1.082       .  S
C948        C949   1.586       .  S
C948        C954   1.552       .  S
C948        C952   1.535       .  S
C948       C1174   1.530       .  S
C949        H956   1.084       .  S
C949        C950   1.399       .  D
C950        C951   1.575       .  S
C950        C973   1.575       .  S
C951        C955   1.531       .  S
C951        C953   1.492       .  S
C951        H957   1.111       .  S
C952        H958   1.088       .  S
C952        C953   1.334       .  D
C954        H959   1.085       .  S
C954        C955   1.341       .  D
C955       N1028   1.445       .  S
C960        C961   1.538       .  S
C960        C966   1.545       .  S
C960        C964   1.569       .  S
C960       C1158   1.514       .  S
C961        H968   1.085       .  S
C961        C962   1.353       .  D
C962        C963   1.566       .  S
C963        C967   1.518       .  S
C963        C965   1.529       .  S
C963        H969   1.110       .  S
C964        H970   1.084       .  S
C964        C965   1.380       .  D
C966        H971   1.087       .  S
C966        C967   1.344       .  D
C967       N1051   1.431       .  S
C972        C974   1.500       .  S
C972        C976   1.544       .  S
C972        C975   1.619       .  S
C973        C977   1.534       .  S
C973        C979   1.538       .  S
C973        C978   1.554       .  S
C974        C982   1.360       .  A
C974        C977   1.378       .  A
C975        C986   1.408       .  A
C975        C978   1.439       .  A
C976        C990   1.383       .  A
C976        C979   1.378       .  A
C977        C980   1.364       .  A
C978        C984   1.387       .  A
C979        C987   1.375       .  A
C980        N981   1.347       .  A
C980        H993   1.079       .  S
N981       C1000   1.418       .  S
N981        C982   1.349       .  A
C982        H983   1.064       .  S
C984        N985   1.364       .  A
C984        H994   1.082       .  S
N985        C986   1.372       .  A
C986        H992   1.079       .  S
C987        N988   1.359       .  A
C987        H989   1.081       .  S
N988       C1012   1.460       .  S
N988        C990   1.356       .  A
C990        H991   1.063       .  S
C995        C996   1.564   1_556  S
C995       C1001   1.551       .  S
C995        C999   1.528   1_556  S
C995       C1134   1.526       .  S
C996       H1003   1.073       .  S
C996        C997   1.375       .  D
C997        C998   1.519       .  S
C998       C1002   1.559       .  S
C998       C1000   1.518       .  S
C998       H1004   1.109       .  S
C999       H1005   1.088       .  S
C999       C1000   1.332       .  D
C1001      H1006   1.082       .  S
C1001      C1002   1.373   1_556  D
C1002      C1020   1.525       .  S
C1007      C1008   1.555       .  S
C1007      C1013   1.536       .  S
C1007      C1011   1.547       .  S
C1007      C1126   1.529       .  S
C1008      H1015   1.084       .  S
C1008      C1009   1.373       .  D
C1009      C1010   1.612       .  S
C1010      C1014   1.577       .  S
C1010      C1012   1.556       .  S
C1010      H1016   1.110       .  S
C1011      H1017   1.080       .  S
C1011      C1012   1.355       .  D
C1013      H1018   1.075       .  S
C1013      C1014   1.344       .  D
C1014      C1042   1.558       .  S
C1019      C1021   1.561       .  S
C1019      C1023   1.538       .  S
C1019      C1022   1.627   1_554  S
C1020      C1024   1.500       .  S
C1020      C1026   1.511       .  S
C1020      C1025   1.541   1_554  S
C1021      C1029   1.394       .  A
C1021      C1024   1.379       .  A
C1022      C1448   1.423       .  A
C1022      C1025   1.432       .  A
C1023      C1037   1.388       .  A
C1023      C1026   1.388       .  A
C1024      C1027   1.367       .  A
C1025      C1446   1.378       .  A
C1026      C1034   1.368       .  A
C1027      N1028   1.339       .  A
C1027      H1040   1.072       .  S
N1028      C1029   1.368       .  A
C1029      H1030   1.081       .  S
C1031      C1440   1.378       .  A
C1031      N1032   1.351       .  A
C1031      H1041   1.082       .  S
N1032      C1033   1.390       .  A
N1032      N1055   1.437       .  S
C1033      C1437   1.428       .  A
C1033      H1039   1.082       .  S
C1034      N1035   1.336       .  A
C1034      H1036   1.067       .  S
N1035      C1037   1.356       .  A
C1037      H1038   1.082       .  S
C1042      C1044   1.516       .  S
C1042      C1046   1.545       .  S
C1042      C1045   1.596       .  S
C1043      C1047   1.525       .  S
C1043      C1049   1.552       .  S
C1043      C1048   1.593       .  S
C1044      C1052   1.370       .  A
C1044      C1047   1.368       .  A
C1045      C1056   1.405       .  A
C1045      C1048   1.435       .  A
C1046      C1060   1.391       .  A
C1046      C1049   1.379       .  A
C1047      C1050   1.376       .  A
C1048      C1054   1.408       .  A
C1049      C1057   1.393       .  A
C1050      N1051   1.345       .  A
C1050      H1063   1.079       .  S
N1051      C1052   1.355       .  A
C1052      H1053   1.063       .  S
C1054      N1055   1.378       .  A
C1054      H1064   1.082       .  S
N1055      C1056   1.363       .  A
C1056      H1062   1.077       .  S
C1057      N1058   1.364       .  A
C1057      H1059   1.079       .  S
N1058      C1060   1.368       .  A
C1060      H1061   1.077       .  S
C1065      N1083   1.351       .  A
C1065      C2762   1.472       .  S
C1065      C3217   1.465       .  S
N1066      N1083   1.316       .  A
N1066      N1088   1.313       .  A
N1066     Co1103   2.057       .  S
C1067      H1112   1.082       .  S
C1067      C2765   1.465       .  S
H1068      C1109   1.082       .  S
C1069      N1093   1.339       .  A
C1069      H1098   1.081       .  S
Co1070     N1088   2.087       .  S
Co1070     N1078   2.065   1_565  S
Co1070     N1110   2.060       .  S
Co1070     N1086   2.110   1_565  S
Co1070    Cl1114   2.413       .  S
N1071      N1078   1.315       .  A
N1071     Co1072   2.062   1_545  S
Co1072     N1075   2.068       .  S
Co1072     N1092   2.046   1_565  S
Co1072     N1079   2.105       .  S
Co1072    Cl1114   2.437       .  S
C1073      N1111   1.359       .  A
C1073      C1613   1.457       .  S
N1074      N1081   1.313       .  A
N1074      N1104   1.305       .  A
N1074     Co1107   2.056       .  S
N1075      N1093   1.305       .  A
N1076      N2746   1.318       .  A
H1077      C1102   1.082   1_545  S
N1078      N2759   1.326       .  A
N1079      N1097   1.315       .  A
C1080      N1084   1.355       .  A
C1080      C1150   1.466       .  S
N1081      C1096   1.351       .  A
N1081     Co1103   2.104       .  S
C1082      N2770   1.336       .  A
C1082      H1116   1.082       .  S
C1082      C2745   1.464       .  S
C1085      N1106   1.357       .  A
C1085      C2742   1.462       .  S
C1085      C2882   1.468       .  S
N1086      N2736   1.318       .  A
N1086      N1092   1.319       .  A
N1087      C1113   1.321       .  A
N1087      N1089   1.312       .  A
N1087     Co1103   2.009       .  S
N1088      C2762   1.346       .  A
N1089      N1117   1.331       .  A
N1089     Co1107   2.114       .  S
H1090      C1113   1.082       .  S
H1091      C1108   1.080       .  S
N1093     Co1107   2.041       .  S
N1094      N1106   1.318       .  A
N1094      N1110   1.319       .  A
N1094     Co1103   2.099       .  S
C1095      C2769   1.458   1_455  S
C1095      C1653   1.456       .  S
C1096      H1100   1.082       .  S
C1096      C1115   1.496       .  S
N1097      C1108   1.337       .  A
N1097     Co1107   2.060       .  S
N1099      N2738   1.327   1_455  A
C1101      N1117   1.360       .  A
C1101      C1113   1.448       .  S
C1101      C1118   1.462       .  S
C1102      N2748   1.346       .  A
C1102      C2725   1.473       .  S
Co1103    Cl1114   2.467       .  S
N1104      C1115   1.333       .  A
C1105      C2727   1.463       .  S
C1105      C1190   1.488       .  S
Co1107    Cl1114   2.405       .  S
C1109      C2755   1.457       .  S
N1110      C2742   1.335       .  A
C1115      C1581   1.487       .  S
C1118      C1119   1.404       .  A
C1118      C1123   1.403       .  A
C1119      C1120   1.402       .  A
C1119      H1128   1.083       .  S
C1120      C1121   1.405       .  A
C1120      H1129   1.084       .  S
C1121      C1127   1.405       .  A
C1121      C1122   1.411       .  A
C1122      C1124   1.396       .  A
C1122      C1123   1.395       .  A
C1123      H1130   1.086       .  S
C1124      C1125   1.390       .  A
C1124      H1131   1.084       .  S
C1125      C1126   1.410       .  A
C1125      H1132   1.077       .  S
C1126      C1127   1.415       .  A
C1127      H1133   1.085       .  S
C1134      C1135   1.414       .  A
C1134      C1139   1.411       .  A
C1135      C1136   1.386       .  A
C1135      H1144   1.083   1_556  S
C1136      C1137   1.391       .  A
C1136      H1145   1.084       .  S
C1137      C1143   1.398       .  A
C1137      C1138   1.416       .  A
C1138      C1555   1.405       .  A
C1138      C1139   1.410       .  A
C1139      H1146   1.080       .  S
C1140      C1553   1.404       .  A
C1140      C1141   1.403       .  A
C1140      H1147   1.083       .  S
C1141      C1557   1.407       .  A
C1141      H1148   1.083       .  S
C1142      C1556   1.406       .  A
C1142      C1143   1.399       .  A
C1142      C3140   1.464       .  S
C1143      H1149   1.086       .  S
C1150      C1151   1.400       .  A
C1150      C1155   1.408       .  A
C1151      C1152   1.399       .  A
C1152      C1153   1.406       .  A
C1152      H1161   1.084       .  S
C1153      C1159   1.394       .  A
C1153      C1154   1.408       .  A
C1154      C1156   1.402       .  A
C1154      C1155   1.393       .  A
C1155      H1162   1.085       .  S
C1156      C1157   1.398       .  A
C1156      H1163   1.080       .  S
C1157      C1158   1.401       .  A
C1157      H1164   1.080       .  S
C1158      C1159   1.414       .  A
C1159      H1165   1.085       .  S
C1166      C1167   1.402       .  A
C1166      C1171   1.422       .  A
C1166      C1530   1.489       .  S
C1167      C1168   1.395       .  A
C1167      H1591   1.083   1_554  S
C1168      C1169   1.407       .  A
C1168      H1177   1.084       .  S
C1169      C1175   1.386       .  A
C1169      C1170   1.403       .  A
C1170      C1172   1.411       .  A
C1170      C1171   1.410       .  A
C1171      H1178   1.085       .  S
C1172      C1173   1.412       .  A
C1172      H1179   1.083       .  S
C1173      C1174   1.408       .  A
C1173      H1180   1.082       .  S
C1174      C1175   1.426       .  A
C1175      H1181   1.079       .  S
H1176      C1582   1.083       .  S
C1182      C1183   1.419   1_455  A
C1182      C1187   1.408   1_455  A
C1183      C1184   1.377       .  A
C1183      H1192   1.084   1_655  S
C1184      C1185   1.385       .  A
C1184      H1193   1.085       .  S
C1185      C1191   1.396       .  A
C1185      C1186   1.419       .  A
C1186      C1188   1.403       .  A
C1186      C1187   1.420       .  A
C1187      H1194   1.083   1_655  S
C1188      C1189   1.407       .  A
C1188      H1195   1.083       .  S
C1189      C1190   1.416       .  A
C1189      H2856   1.082       .  S
C1190      C1191   1.394       .  A
H1196      C2849   1.082       .  S
C1198      C1199   1.402       .  A
C1198      C1203   1.404       .  A
C1198      C1488   1.458       .  S
C1199      C1200   1.397       .  A
C1199      H1208   1.083       .  S
C1200      C1201   1.403       .  A
C1200      H1209   1.082       .  S
C1201      C1207   1.394       .  A
C1201      C1202   1.411       .  A
C1202      C1204   1.399       .  A
C1202      C1203   1.395       .  A
C1203      H1625   1.086       .  S
C1204      C1205   1.392       .  A
C1204      H1211   1.084       .  S
C1205      C1206   1.410       .  A
C1205      H1212   1.083       .  S
C1206      C1207   1.409       .  A
C1207      H1213   1.082       .  S
H1210      C1618   1.086       .  S
C1214      C1215   1.412       .  A
C1214      C1219   1.406       .  A
C1215      C1216   1.383   1_455  A
C1215      H1224   1.084       .  S
C1216      C1217   1.391       .  A
C1216      H1225   1.084       .  S
C1217      C1223   1.391       .  A
C1217      C1218   1.416       .  A
C1218      C1220   1.402       .  A
C1218      C1219   1.404   1_655  A
C1219      H1226   1.080       .  S
C1220      C1221   1.398       .  A
C1220      H1227   1.084   1_655  S
C1221      C1222   1.409       .  A
C1221      H1228   1.082       .  S
C1222      C1223   1.396       .  A
C1222      C2745   1.470       .  S
C1223      H2889   1.086       .  S
H1229      C2883   1.086       .  S
C1230      C1231   1.416       .  A
C1230      C1235   1.417       .  A
C1231      C1232   1.378       .  A
C1231      H1240   1.074       .  S
C1232      C1233   1.385       .  A
C1232      H1241   1.085   1_455  S
C1233      C1239   1.387   1_554  A
C1233      C1234   1.411       .  A
C1234      C1236   1.407   1_554  A
C1234      C1235   1.411       .  A
C1235      H1242   1.083       .  S
C1236      C1652   1.408       .  A
C1236      H1243   1.083   1_556  S
C1237      C1651   1.405       .  A
C1237      C1653   1.408       .  A
C1238      C1652   1.408       .  A
C1238      C1239   1.391       .  A
C1238      C1510   1.460       .  S
C1239      H2905   1.087       .  S
H1245      C2899   1.087       .  S
C1246      C1247   1.567       .  S
C1246      C1252   1.537       .  S
C1246      C1250   1.551       .  S
C1246      C1645   1.521       .  S
C1247      H1254   1.084       .  S
C1247      C1248   1.387       .  D
C1248      C1249   1.587       .  S
C1248      C1294   1.590       .  S
C1249      C1253   1.545       .  S
C1249      C1251   1.565       .  S
C1249      H1255   1.096       .  S
C1250      H1256   1.075       .  S
C1250      C1251   1.344       .  D
C1251      C1258   1.560       .  S
C1252      H1257   1.088       .  S
C1252      C1253   1.336       .  D
C1253      N1450   1.439       .  S
C1258      C1260   1.542       .  S
C1258      C1262   1.520       .  S
C1258      C1261   1.579       .  S
C1259      C1286   1.585       .  S
C1259      C1263   1.536       .  S
C1259      C1265   1.494       .  S
C1259      C1264   1.612       .  S
C1260      C1268   1.385       .  A
C1260      C1263   1.398       .  A
C1261      C2932   1.402   1_455  A
C1261      C1264   1.425       .  A
C1262      C1276   1.368       .  A
C1262      C1265   1.374       .  A
C1263      C1266   1.385       .  A
C1264      C2930   1.421   1_455  A
C1265      C1273   1.359       .  A
C1266      N1267   1.357       .  A
C1266      H1279   1.082       .  S
N1267      C1412   1.448       .  S
N1267      C1268   1.361       .  A
C1268      H1269   1.081       .  S
C1270      C2924   1.425       .  A
C1270      N1271   1.385       .  A
C1270      H1280   1.081       .  S
N1271      C1272   1.367       .  A
N1271      N1353   1.452       .  S
C1272      C2921   1.405       .  A
C1272      H1278   1.079       .  S
C1273      N1274   1.329       .  A
C1273      H1275   1.076       .  S
N1274      C1330   1.414       .  S
N1274      C1276   1.340       .  A
C1276      H1277   1.054       .  S
C1281      C1282   1.556       .  S
C1281      C1287   1.551       .  S
C1281      C1285   1.532       .  S
C1281      C1629   1.511       .  S
C1282      H1289   1.074       .  S
C1282      C1283   1.371       .  D
C1283      C1284   1.581       .  S
C1283      C1387   1.581       .  S
C1284      C1288   1.585       .  S
C1284      C1286   1.624       .  S
C1284      H1290   1.106       .  S
C1285      H1291   1.086       .  S
C1285      C1286   1.333       .  D
C1287      H1292   1.086       .  S
C1287      C1288   1.360       .  D
C1288      N1473   1.484       .  S
C1293      C1377   1.527       .  S
C1293      C1295   1.493       .  S
C1293      C1297   1.526       .  S
C1293      C1296   1.535       .  S
C1294      C1298   1.570       .  S
C1294      C1300   1.559       .  S
C1294      C1299   1.614       .  S
C1295      C1303   1.369       .  A
C1295      C1298   1.364       .  A
C1296      C1299   1.426       .  A
C1297      C1311   1.371       .  A
C1297      C1300   1.390       .  A
C1298      C1301   1.390       .  A
C1300      C1308   1.394       .  A
C1301      N1302   1.347       .  A
C1301      H1314   1.044       .  S
N1302      C1321   1.446       .  S
N1302      C1303   1.342       .  A
C1303      H1304   1.075       .  S
C1305      N1306   1.381       .  A
C1305      H1315   1.081       .  S
N1306      C1307   1.355       .  A
N1306      N1400   1.431       .  S
C1307      H1313   1.081       .  S
C1308      N1309   1.368       .  A
C1308      H1310   1.082       .  S
N1309      C1333   1.446       .  S
N1309      C1311   1.352       .  A
C1311      H1312   1.077       .  S
C1316      C1317   1.553       .  S
C1316      C1322   1.557       .  S
C1316      C1320   1.540       .  S
C1316      C1621   1.520       .  S
C1317      H1324   1.082       .  S
C1317      C1318   1.343       .  D
C1318      C1319   1.607       .  S
C1318      C1341   1.589       .  S
C1319      C1323   1.620       .  S
C1319      C1321   1.538       .  S
C1319      H1325   1.108       .  S
C1320      H1326   1.086       .  S
C1320      C1321   1.346       .  D
C1322      H1327   1.085       .  S
C1322      C1323   1.370       .  D
C1323      C1434   1.612       .  S
C1328      C1329   1.531       .  S
C1328      C1334   1.579       .  S
C1328      C1332   1.555       .  S
C1328      C1597   1.529       .  S
C1329      H1336   1.088       .  S
C1329      C1330   1.336       .  D
C1330      C1331   1.497       .  S
C1331      C1335   1.584       .  S
C1331      C1333   1.523       .  S
C1331      H1337   1.107       .  S
C1332      H1338   1.086       .  S
C1332      C1333   1.357       .  D
C1334      H1339   1.084       .  S
C1334      C1335   1.395       .  D
C1335      C1458   1.579       .  S
C1340      C1424   1.590       .  S
C1340      C1342   1.504       .  S
C1340      C1344   1.548       .  S
C1340      C1343   1.590       .  S
C1341      C1345   1.504       .  S
C1341      C1347   1.538       .  S
C1341      C1346   1.620       .  S
C1342      C1350   1.374       .  A
C1342      C1345   1.379       .  A
C1343      C1354   1.412       .  A
C1343      C1346   1.434       .  A
C1344      C1358   1.389       .  A
C1344      C1347   1.399       .  A
C1345      C1348   1.354       .  A
C1346      C1352   1.414       .  A
C1347      C1355   1.384       .  A
C1348      N1349   1.324       .  A
C1348      H1361   1.053       .  S
N1349      C1368   1.405       .  S
N1349      C1350   1.332       .  A
C1350      H1351   1.081       .  S
C1352      N1353   1.382       .  A
C1352      H1362   1.082       .  S
N1353      C1354   1.375       .  A
C1354      H1360   1.081       .  S
C1355      N1356   1.360       .  A
C1355      H1357   1.080       .  S
N1356      C1380   1.452       .  S
N1356      C1358   1.359       .  A
C1358      H1359   1.081       .  S
C1363      C1364   1.590       .  S
C1363      C1369   1.551       .  S
C1363      C1367   1.535       .  S
C1363      C1589   1.536       .  S
C1364      H1371   1.084       .  S
C1364      C1365   1.402       .  D
C1365      C1366   1.574       .  S
C1365      C1388   1.581       .  S
C1366      C1370   1.530       .  S
C1366      C1368   1.492       .  S
C1366      H1372   1.111       .  S
C1367      H1373   1.088       .  S
C1367      C1368   1.334       .  D
C1369      H1374   1.085       .  S
C1369      C1370   1.339       .  D
C1370      N1443   1.444       .  S
C1375      C1376   1.539       .  S
C1375      C1381   1.547       .  S
C1375      C1379   1.571       .  S
C1375      C1573   1.517       .  S
C1376      H1383   1.085       .  S
C1376      C1377   1.355       .  D
C1377      C1378   1.566       .  S
C1378      C1382   1.517       .  S
C1378      C1380   1.528       .  S
C1378      H1384   1.109       .  S
C1379      H1385   1.084       .  S
C1379      C1380   1.379       .  D
C1381      H1386   1.087       .  S
C1381      C1382   1.346       .  D
C1382      N1466   1.431       .  S
C1387      C1389   1.498       .  S
C1387      C1391   1.542       .  S
C1387      C1390   1.622       .  S
C1388      C1392   1.535       .  S
C1388      C1394   1.541       .  S
C1388      C1393   1.558       .  S
C1389      C1397   1.359       .  A
C1389      C1392   1.378       .  A
C1390      C1401   1.411       .  A
C1390      C1393   1.439       .  A
C1391      C1405   1.384       .  A
C1391      C1394   1.380       .  A
C1392      C1395   1.365       .  A
C1393      C1399   1.389       .  A
C1394      C1402   1.375       .  A
C1395      N1396   1.348       .  A
C1395      H1408   1.079       .  S
N1396      C1415   1.419       .  S
N1396      C1397   1.348       .  A
C1397      H1398   1.064       .  S
C1399      N1400   1.365       .  A
C1399      H1409   1.082       .  S
N1400      C1401   1.373       .  A
C1401      H1407   1.079       .  S
C1402      N1403   1.359       .  A
C1402      H1404   1.081       .  S
N1403      C1427   1.459       .  S
N1403      C1405   1.355       .  A
C1405      H1406   1.063       .  S
C1410      C1411   1.560       .  S
C1410      C1416   1.550       .  S
C1410      C1414   1.530       .  S
C1410      C1549   1.524       .  S
C1411      H1418   1.072       .  S
C1411      C1412   1.374       .  D
C1412      C1413   1.520       .  S
C1413      C1417   1.559       .  S
C1413      C1415   1.518       .  S
C1413      H1419   1.109       .  S
C1414      H1420   1.088       .  S
C1414      C1415   1.333       .  D
C1416      H1421   1.082       .  S
C1416      C1417   1.372       .  D
C1417      C1435   1.525       .  S
C1422      C1423   1.551       .  S
C1422      C1428   1.539       .  S
C1422      C1426   1.544       .  S
C1422      C1541   1.527       .  S
C1423      H1430   1.085       .  S
C1423      C1424   1.370       .  D
C1424      C1425   1.614       .  S
C1425      C1429   1.577       .  S
C1425      C1427   1.559       .  S
C1425      H1431   1.110       .  S
C1426      H1432   1.082       .  S
C1426      C1427   1.354       .  D
C1428      H1433   1.072       .  S
C1428      C1429   1.344       .  D
C1429      C1457   1.562       .  S
C1434      C1436   1.561       .  S
C1434      C1438   1.536       .  S
C1434      C1437   1.634       .  S
C1435      C1439   1.499       .  S
C1435      C1441   1.508       .  S
C1435      C1440   1.539       .  S
C1436      C1444   1.393       .  A
C1436      C1439   1.380       .  A
C1437      C1440   1.433       .  A
C1438      C1452   1.386       .  A
C1438      C1441   1.387       .  A
C1439      C1442   1.366       .  A
C1441      C1449   1.365       .  A
C1442      N1443   1.339       .  A
C1442      H1455   1.072       .  S
N1443      C1444   1.368       .  A
C1444      H1445   1.081       .  S
C1446      N1447   1.352       .  A
C1446      H1456   1.082       .  S
N1447      C1448   1.388       .  A
N1447      N1470   1.434       .  S
C1448      H1454   1.082       .  S
C1449      N1450   1.335       .  A
C1449      H1451   1.067       .  S
N1450      C1452   1.356       .  A
C1452      H1453   1.082       .  S
C1457      C1459   1.515       .  S
C1457      C1461   1.545       .  S
C1457      C1460   1.592       .  S
C1458      C1462   1.527       .  S
C1458      C1464   1.552       .  S
C1458      C1463   1.594       .  S
C1459      C1467   1.368       .  A
C1459      C1462   1.370       .  A
C1460      C1471   1.402       .  A
C1460      C1463   1.436       .  A
C1461      C1475   1.391       .  A
C1461      C1464   1.381       .  A
C1462      C1465   1.378       .  A
C1463      C1469   1.408       .  A
C1464      C1472   1.393       .  A
C1465      N1466   1.345       .  A
C1465      H1478   1.080       .  S
N1466      C1467   1.355       .  A
C1467      H1468   1.064       .  S
C1469      N1470   1.378       .  A
C1469      H1479   1.082       .  S
N1470      C1471   1.360       .  A
C1471      H1477   1.077       .  S
C1472      N1473   1.365       .  A
C1472      H1474   1.080       .  S
N1473      C1475   1.367       .  A
C1475      H1476   1.077       .  S
C1480      N1498   1.350       .  A
C1480      C3177   1.473       .  S
C1480      C2802   1.465       .  S
N1481      N1498   1.316       .  A
N1481      N1503   1.315       .  A
N1481     Co1518   2.055       .  S
C1482      H1527   1.082       .  S
C1482      C3180   1.464       .  S
H1483      C1524   1.082       .  S
C1484      N1508   1.336       .  A
C1484      H1513   1.080       .  S
Co1485     N1503   2.091       .  S
Co1485     N1493   2.074   1_565  S
Co1485     N1525   2.062       .  S
Co1485     N1501   2.111   1_565  S
Co1485    Cl1529   2.411       .  S
N1486      N1493   1.315       .  A
N1486     Co1487   2.050       .  S
Co1487     N1490   2.080   1_546  S
Co1487     N1507   2.049       .  S
Co1487     N1494   2.100   1_545  S
Co1487    Cl1529   2.442   1_545  S
C1488      N1526   1.355       .  A
N1489      N1496   1.311       .  A
N1489      N1519   1.305   1_556  A
N1489     Co1522   2.057       .  S
N1490      N1508   1.305       .  A
N1491      N3161   1.318       .  A
H1492      C1517   1.082   1_545  S
N1493      N3174   1.327       .  A
N1494      N1512   1.315       .  A
C1495      N1499   1.357       .  A
C1495      C1565   1.467       .  S
N1496      C1511   1.351       .  A
N1496     Co1518   2.102       .  S
C1497      N3185   1.335       .  A
C1497      H1531   1.082       .  S
C1497      C3160   1.463       .  S
C1500      N1521   1.356       .  A
C1500      C3157   1.463       .  S
C1500      C3297   1.467       .  S
N1501      N3151   1.318       .  A
N1501      N1507   1.319       .  A
N1502      C1528   1.320       .  A
N1502      N1504   1.311       .  A
N1502     Co1518   2.012       .  S
N1503      C3177   1.346       .  A
N1504      N1532   1.329       .  A
N1504     Co1522   2.102       .  S
H1505      C1528   1.082       .  S
H1506      C1523   1.079       .  S
N1508     Co1522   2.033   1_554  S
N1509      N1521   1.317       .  A
N1509      N1525   1.319       .  A
N1509     Co1518   2.092       .  S
C1510      C3184   1.456   1_455  S
C1511      H1515   1.082       .  S
C1511      C1530   1.497   1_556  S
N1512      C1523   1.338       .  A
N1512     Co1522   2.063       .  S
N1514      N3153   1.328   1_455  A
C1516      N1532   1.356       .  A
C1516      C1528   1.450       .  S
C1516      C1533   1.461       .  S
C1517      N3163   1.344       .  A
C1517      C3140   1.472       .  S
Co1518    Cl1529   2.469       .  S
N1519      C1530   1.335       .  A
C1520      C3142   1.463       .  S
C1520      C1605   1.487       .  S
Co1522    Cl1529   2.402       .  S
C1524      C3170   1.458       .  S
N1525      C3157   1.335       .  A
C1533      C1534   1.401       .  A
C1533      C1538   1.405       .  A
C1534      C1535   1.400       .  A
C1534      H1543   1.084       .  S
C1535      C1536   1.405       .  A
C1535      H1544   1.084       .  S
C1536      C1542   1.400       .  A
C1536      C1537   1.411       .  A
C1537      C1539   1.399       .  A
C1537      C1538   1.394       .  A
C1538      H1545   1.086       .  S
C1539      C1540   1.392       .  A
C1539      H1546   1.084       .  S
C1540      C1541   1.409       .  A
C1540      H1547   1.080       .  S
C1541      C1542   1.413       .  A
C1542      H1548   1.085       .  S
C1549      C1550   1.414       .  A
C1549      C1554   1.409       .  A
C1550      C1551   1.385       .  A
C1550      H1559   1.083       .  S
C1551      C1552   1.391       .  A
C1551      H1560   1.084       .  S
C1552      C1558   1.398       .  A
C1552      C1553   1.416       .  A
C1553      C1554   1.409       .  A
C1554      H1561   1.081       .  S
C1555      C1556   1.403       .  A
C1555      H1562   1.083       .  S
C1556      H1563   1.083       .  S
C1557      C1558   1.397       .  A
C1557      C2725   1.464       .  S
C1558      H1564   1.086       .  S
C1565      C1566   1.399       .  A
C1565      C1570   1.407       .  A
C1566      C1567   1.400       .  A
C1567      C1568   1.407       .  A
C1567      H1576   1.084       .  S
C1568      C1574   1.396       .  A
C1568      C1569   1.409       .  A
C1569      C1571   1.400       .  A
C1569      C1570   1.392       .  A
C1570      H1577   1.085       .  S
C1571      C1572   1.397       .  A
C1571      H1578   1.079       .  S
C1572      C1573   1.401       .  A
C1572      H1579   1.079       .  S
C1573      C1574   1.415       .  A
C1574      H1580   1.085       .  S
C1581      C1582   1.401       .  A
C1581      C1586   1.422       .  A
C1582      C1583   1.395       .  A
C1583      C1584   1.408       .  A
C1583      H1592   1.084       .  S
C1584      C1590   1.387       .  A
C1584      C1585   1.402       .  A
C1585      C1587   1.412       .  A
C1585      C1586   1.409       .  A
C1586      H1593   1.085       .  S
C1587      C1588   1.413       .  A
C1587      H1594   1.083       .  S
C1588      C1589   1.408       .  A
C1588      H1595   1.082       .  S
C1589      C1590   1.429       .  A
C1590      H1596   1.079       .  S
C1597      C1598   1.420   1_455  A
C1597      C1602   1.408   1_455  A
C1598      C1599   1.378       .  A
C1598      H1607   1.084   1_655  S
C1599      C1600   1.385       .  A
C1599      H1608   1.085       .  S
C1600      C1606   1.397       .  A
C1600      C1601   1.420       .  A
C1601      C1603   1.402       .  A
C1601      C1602   1.420       .  A
C1602      H1609   1.083   1_655  S
C1603      C1604   1.406       .  A
C1603      H1610   1.083       .  S
C1604      C1605   1.416       .  A
C1604      H3271   1.082       .  S
C1605      C1606   1.394       .  A
H1611      C3264   1.081       .  S
C1613      C1614   1.400       .  A
C1613      C1618   1.403       .  A
C1614      C1615   1.395       .  A
C1614      H1623   1.082       .  S
C1615      C1616   1.402       .  A
C1615      H1624   1.080       .  S
C1616      C1622   1.390       .  A
C1616      C1617   1.411       .  A
C1617      C1619   1.399       .  A
C1617      C1618   1.393       .  A
C1619      C1620   1.392       .  A
C1619      H1626   1.084       .  S
C1620      C1621   1.410       .  A
C1620      H1627   1.083       .  S
C1621      C1622   1.407       .  A
C1622      H1628   1.082       .  S
C1629      C1630   1.412       .  A
C1629      C1634   1.406       .  A
C1630      C1631   1.384   1_455  A
C1630      H1639   1.084       .  S
C1631      C1632   1.392       .  A
C1631      H1640   1.084       .  S
C1632      C1638   1.392       .  A
C1632      C1633   1.415       .  A
C1633      C1635   1.401       .  A
C1633      C1634   1.401   1_655  A
C1634      H1641   1.079       .  S
C1635      C1636   1.396       .  A
C1635      H1642   1.084   1_655  S
C1636      C1637   1.408       .  A
C1636      H1643   1.082       .  S
C1637      C1638   1.396       .  A
C1637      C3160   1.467       .  S
C1638      H3304   1.086       .  S
H1644      C3298   1.086       .  S
C1645      C1646   1.420       .  A
C1645      C1650   1.415       .  A
C1646      C1647   1.377       .  A
C1646      H1655   1.075       .  S
C1647      C1648   1.384       .  A
C1647      H1656   1.085       .  S
C1648      C1654   1.388       .  A
C1648      C1649   1.412       .  A
C1649      C1651   1.406       .  A
C1649      C1650   1.411       .  A
C1650      H1657   1.083       .  S
C1651      H1658   1.083       .  S
C1653      C1654   1.389       .  A
C1654      H3320   1.087       .  S
H1660      C3314   1.087       .  S
C1661      C1662   1.560       .  S
C1661      C1667   1.541       .  S
C1661      C1665   1.556       .  S
C1661      C2060   1.524       .  S
C1662      H1669   1.083       .  S
C1662      C1663   1.379       .  D
C1663      C1664   1.590       .  S
C1663      C1709   1.589       .  S
C1664      C1668   1.551       .  S
C1664      C1666   1.563       .  S
C1664      H1670   1.098       .  S
C1665      H1671   1.070       .  S
C1665      C1666   1.344       .  D
C1666      C1673   1.559       .  S
C1667      H1672   1.087       .  S
C1667      C1668   1.342       .  D
C1668      N1865   1.446       .  S
C1673      C1675   1.542       .  S
C1673      C1677   1.522       .  S
C1673      C1676   1.581       .  S
C1674      C1701   1.586       .  S
C1674      C1678   1.537       .  S
C1674      C1680   1.494       .  S
C1674      C1679   1.617       .  S
C1675      C1683   1.385       .  A
C1675      C1678   1.396       .  A
C1676      C1679   1.424       .  A
C1677      C1691   1.370       .  A
C1677      C1680   1.372       .  A
C1678      C1681   1.386       .  A
C1680      C1688   1.359       .  A
C1681      N1682   1.357       .  A
C1681      H1694   1.082       .  S
N1682      C1827   1.449       .  S
N1682      C1683   1.361       .  A
C1683      H1684   1.081       .  S
C1685      N1686   1.385       .  A
C1685      H1695   1.081       .  S
N1686      C1687   1.366       .  A
N1686      N1768   1.450       .  S
C1687      H1693   1.079       .  S
C1688      N1689   1.329       .  A
C1688      H1690   1.076       .  S
N1689      C1745   1.418       .  S
N1689      C1691   1.342       .  A
C1691      H1692   1.054       .  S
C1696      C1697   1.559       .  S
C1696      C1702   1.548       .  S
C1696      C1700   1.532       .  S
C1696      C2044   1.510       .  S
C1697      H1704   1.075       .  S
C1697      C1698   1.377       .  D
C1698      C1699   1.580       .  S
C1698      C1802   1.586       .  S
C1699      C1703   1.585       .  S
C1699      C1701   1.626       .  S
C1699      H1705   1.106       .  S
C1700      H1706   1.087       .  S
C1700      C1701   1.332       .  D
C1702      H1707   1.086       .  S
C1702      C1703   1.356       .  D
C1703      N1888   1.482       .  S
C1708      C1792   1.526       .  S
C1708      C1710   1.493       .  S
C1708      C1712   1.524       .  S
C1708      C1711   1.537       .  S
C1709      C1713   1.565       .  S
C1709      C1715   1.558       .  S
C1709      C1714   1.616       .  S
C1710      C1718   1.369       .  A
C1710      C1713   1.363       .  A
C1711      C2552   1.378   1_545  A
C1711      C1714   1.426       .  A
C1712      C1726   1.370       .  A
C1712      C1715   1.389       .  A
C1713      C1716   1.386       .  A
C1714      C2550   1.415   1_545  A
C1715      C1723   1.393       .  A
C1716      N1717   1.347       .  A
C1716      H1729   1.041       .  S
N1717      C1736   1.444       .  S
N1717      C1718   1.342       .  A
C1718      H1719   1.075       .  S
C1720      C2544   1.416       .  A
C1720      N1721   1.381       .  A
C1720      H1730   1.081       .  S
N1721      C1722   1.355       .  A
N1721      N1815   1.430       .  S
C1722      C2541   1.379       .  A
C1722      H1728   1.081       .  S
C1723      N1724   1.367       .  A
C1723      H1725   1.082       .  S
N1724      C1748   1.444       .  S
N1724      C1726   1.350       .  A
C1726      H1727   1.077       .  S
C1731      C1732   1.556       .  S
C1731      C1737   1.558       .  S
C1731      C1735   1.539       .  S
C1731      C2036   1.521       .  S
C1732      H1739   1.083       .  S
C1732      C1733   1.346       .  D
C1733      C1734   1.606       .  S
C1733      C1756   1.591       .  S
C1734      C1738   1.616       .  S
C1734      C1736   1.536       .  S
C1734      H1740   1.107       .  S
C1735      H1741   1.086       .  S
C1735      C1736   1.345       .  D
C1737      H1742   1.085       .  S
C1737      C1738   1.371       .  D
C1738      C1849   1.609       .  S
C1743      C1744   1.533       .  S
C1743      C1749   1.577       .  S
C1743      C1747   1.554       .  S
C1743      C2012   1.528       .  S
C1744      H1751   1.088       .  S
C1744      C1745   1.336       .  D
C1745      C1746   1.499       .  S
C1746      C1750   1.587       .  S
C1746      C1748   1.523       .  S
C1746      H1752   1.107       .  S
C1747      H1753   1.086       .  S
C1747      C1748   1.356       .  D
C1749      H1754   1.084       .  S
C1749      C1750   1.394       .  D
C1750      C1873   1.577       .  S
C1755      C1839   1.597       .  S
C1755      C1757   1.503       .  S
C1755      C1759   1.550       .  S
C1755      C1758   1.585       .  S
C1756      C1760   1.508       .  S
C1756      C1762   1.540       .  S
C1756      C1761   1.619       .  S
C1757      C1765   1.367       .  A
C1757      C1760   1.380       .  A
C1758      C1769   1.408       .  A
C1758      C1761   1.433       .  A
C1759      C1773   1.388       .  A
C1759      C1762   1.400       .  A
C1760      C1763   1.359       .  A
C1761      C1767   1.414       .  A
C1762      C1770   1.383       .  A
C1763      N1764   1.325       .  A
C1763      H1776   1.055       .  S
N1764      C1783   1.402       .  S
N1764      C1765   1.329       .  A
C1765      H1766   1.081       .  S
C1767      N1768   1.383       .  A
C1767      H1777   1.082       .  S
N1768      C1769   1.372       .  A
C1769      H1775   1.081       .  S
C1770      N1771   1.362       .  A
C1770      H1772   1.080       .  S
N1771      C1795   1.451       .  S
N1771      C1773   1.360       .  A
C1773      H1774   1.082       .  S
C1778      C1779   1.590       .  S
C1778      C1784   1.555       .  S
C1778      C1782   1.528       .  S
C1778      C2004   1.533       .  S
C1779      H1786   1.084       .  S
C1779      C1780   1.400       .  D
C1780      C1781   1.576       .  S
C1780      C1803   1.586       .  S
C1781      C1785   1.530       .  S
C1781      C1783   1.492       .  S
C1781      H1787   1.110       .  S
C1782      H1788   1.089       .  S
C1782      C1783   1.334       .  D
C1784      H1789   1.086       .  S
C1784      C1785   1.347       .  D
C1785      N1858   1.448       .  S
C1790      C1791   1.539       .  S
C1790      C1796   1.544       .  S
C1790      C1794   1.571       .  S
C1790      C1988   1.516   1_545  S
C1791      H1798   1.085   1_545  S
C1791      C1792   1.355       .  D
C1792      C1793   1.566       .  S
C1793      C1797   1.517       .  S
C1793      C1795   1.528       .  S
C1793      H1799   1.109       .  S
C1794      H1800   1.084       .  S
C1794      C1795   1.381       .  D
C1796      H1801   1.087       .  S
C1796      C1797   1.343       .  D
C1797      N1881   1.430       .  S
C1802      C1804   1.499       .  S
C1802      C1806   1.544       .  S
C1802      C1805   1.618       .  S
C1803      C1807   1.535       .  S
C1803      C1809   1.538       .  S
C1803      C1808   1.562       .  S
C1804      C1812   1.358       .  A
C1804      C1807   1.380       .  A
C1805      C1816   1.408       .  A
C1805      C1808   1.441       .  A
C1806      C1820   1.383       .  A
C1806      C1809   1.380       .  A
C1807      C1810   1.365       .  A
C1808      C1814   1.390       .  A
C1809      C1817   1.376       .  A
C1810      N1811   1.347       .  A
C1810      H1823   1.079       .  S
N1811      C1830   1.417       .  S
N1811      C1812   1.348       .  A
C1812      H1813   1.063       .  S
C1814      N1815   1.366       .  A
C1814      H1824   1.082       .  S
N1815      C1816   1.371       .  A
C1816      H1822   1.079       .  S
C1817      N1818   1.359       .  A
C1817      H1819   1.081       .  S
N1818      C1842   1.461       .  S
N1818      C1820   1.356       .  A
C1820      H1821   1.063       .  S
C1825      C1826   1.561   1_556  S
C1825      C1831   1.552       .  S
C1825      C1829   1.529   1_556  S
C1825      C1964   1.526       .  S
C1826      H1833   1.073       .  S
C1826      C1827   1.374       .  D
C1827      C1828   1.520       .  S
C1828      C1832   1.558       .  S
C1828      C1830   1.518       .  S
C1828      H1834   1.109       .  S
C1829      H1835   1.088       .  S
C1829      C1830   1.332       .  D
C1831      H1836   1.082       .  S
C1831      C1832   1.375   1_556  D
C1832      C1850   1.527       .  S
C1837      C1838   1.555       .  S
C1837      C1843   1.537       .  S
C1837      C1841   1.546       .  S
C1837      C1956   1.532       .  S
C1838      H1845   1.084       .  S
C1838      C1839   1.374       .  D
C1839      C1840   1.615       .  S
C1840      C1844   1.574       .  S
C1840      C1842   1.558       .  S
C1840      H1846   1.110       .  S
C1841      H1847   1.081       .  S
C1841      C1842   1.354       .  D
C1843      H1848   1.073       .  S
C1843      C1844   1.344       .  D
C1844      C1872   1.556       .  S
C1849      C1851   1.564       .  S
C1849      C1853   1.536       .  S
C1849      C1852   1.630   1_554  S
C1850      C1854   1.504       .  S
C1850      C1856   1.514       .  S
C1850      C1855   1.539   1_554  S
C1851      C1859   1.397       .  A
C1851      C1854   1.380       .  A
C1852      C2278   1.425       .  A
C1852      C1855   1.432       .  A
C1853      C1867   1.388       .  A
C1853      C1856   1.388       .  A
C1854      C1857   1.369       .  A
C1855      C2276   1.378       .  A
C1856      C1864   1.371       .  A
C1857      N1858   1.342       .  A
C1857      H1870   1.073       .  S
N1858      C1859   1.370       .  A
C1859      H1860   1.082       .  S
C1861      C2270   1.378       .  A
C1861      N1862   1.351       .  A
C1861      H1871   1.082       .  S
N1862      C1863   1.389       .  A
N1862      N1885   1.436       .  S
C1863      C2267   1.427       .  A
C1863      H1869   1.082       .  S
C1864      N1865   1.339       .  A
C1864      H1866   1.066       .  S
N1865      C1867   1.355       .  A
C1867      H1868   1.082       .  S
C1872      C1874   1.516       .  S
C1872      C1876   1.543       .  S
C1872      C1875   1.594       .  S
C1873      C1877   1.526       .  S
C1873      C1879   1.550       .  S
C1873      C1878   1.594       .  S
C1874      C1882   1.370       .  A
C1874      C1877   1.369       .  A
C1875      C1886   1.404       .  A
C1875      C1878   1.435       .  A
C1876      C1890   1.390       .  A
C1876      C1879   1.379       .  A
C1877      C1880   1.376       .  A
C1878      C1884   1.408       .  A
C1879      C1887   1.391       .  A
C1880      N1881   1.345       .  A
C1880      H1893   1.079       .  S
N1881      C1882   1.355       .  A
C1882      H1883   1.064       .  S
C1884      N1885   1.378       .  A
C1884      H1894   1.082       .  S
N1885      C1886   1.362       .  A
C1886      H1892   1.077       .  S
C1887      N1888   1.363       .  A
C1887      H1889   1.079       .  S
N1888      C1890   1.367       .  A
C1890      H1891   1.077       .  S
C1895      N1913   1.351       .  A
N1896      N1913   1.316       .  A
N1896      N1918   1.313       .  A
N1896     Co1933   2.059   1_455  S
C1897      N2752   1.340       .  A
C1897      H1942   1.082       .  S
H1898      C1939   1.082       .  S
C1899      N1923   1.338       .  A
C1899      H1928   1.079       .  S
C1899      C2733   1.459       .  S
Co1900     N1918   2.084   1_655  S
Co1900     N1908   2.062       .  S
Co1900     N1940   2.060       .  S
Co1900     N1916   2.108       .  S
Co1900    Cl1944   2.415       .  S
N1901      C2769   1.323       .  A
N1901      N1908   1.316       .  A
N1901     Co1902   2.064       .  S
Co1902     N1905   2.073       .  S
Co1902     N1922   2.050       .  S
Co1902     N1909   2.106       .  S
Co1902    Cl1944   2.440       .  S
C1903      N1941   1.358   1_565  A
C1903      C2729   1.460       .  S
C1903      C2443   1.458       .  S
N1904      N1911   1.311       .  A
N1904      N1934   1.304       .  A
N1904     Co1937   2.053       .  S
N1905      N1923   1.305       .  A
N1905      N2771   1.319       .  A
N1906      C2765   1.355       .  A
H1907      C1932   1.082       .  S
N1909      N1927   1.316       .  A
N1909      N2744   1.321       .  A
C1910      N1914   1.356       .  A
C1910      C2768   1.463       .  S
C1910      C1980   1.467       .  S
N1911      C1926   1.352   1_655  A
N1911     Co1933   2.108       .  S
C1912      H1946   1.082       .  S
N1914      N2739   1.321       .  A
C1915      N1936   1.356       .  A
N1916      N1922   1.319       .  A
N1917      C1943   1.321       .  A
N1917      N1919   1.312       .  A
N1917     Co1933   2.010       .  S
N1919      N1947   1.332       .  A
N1919     Co1937   2.116       .  S
H1920      C1943   1.082       .  S
H1921      C1938   1.080       .  S
N1922      C2727   1.341       .  A
N1923     Co1937   2.040       .  S
N1924      N1936   1.317       .  A
N1924      N1940   1.320       .  A
N1924     Co1933   2.096       .  S
C1925      N2759   1.351       .  A
C1925      C2483   1.459       .  S
C1926      H1930   1.082       .  S
C1926      C1945   1.499       .  S
N1927      C1938   1.337       .  A
N1927     Co1937   2.058       .  S
N1929      C2755   1.354       .  A
C1931      N1947   1.360       .  A
C1931      C1943   1.448       .  S
C1931      C1948   1.464       .  S
Co1933    Cl1944   2.469       .  S
N1934      C1945   1.333   1_655  A
C1935      N2736   1.355       .  A
C1935      C2020   1.489       .  S
Co1937    Cl1944   2.404       .  S
C1938      C2740   1.462       .  S
C1939      N2731   1.319       .  A
N1941      N2735   1.319   1_545  A
C1945      C2411   1.489       .  S
C1948      C1949   1.403       .  A
C1948      C1953   1.404       .  A
C1949      C1950   1.402       .  A
C1949      H1958   1.083       .  S
C1950      C1951   1.405       .  A
C1950      H1959   1.083       .  S
C1951      C1957   1.404       .  A
C1951      C1952   1.411       .  A
C1952      C1954   1.397       .  A
C1952      C1953   1.395       .  A
C1953      H1960   1.086       .  S
C1954      C1955   1.391       .  A
C1954      H1961   1.084       .  S
C1955      C1956   1.410       .  A
C1955      H1962   1.079       .  S
C1956      C1957   1.415       .  A
C1957      H1963   1.085       .  S
C1964      C1965   1.415       .  A
C1964      C1969   1.409       .  A
C1965      C1966   1.386       .  A
C1965      H1974   1.083   1_556  S
C1966      C1967   1.391       .  A
C1966      H1975   1.084       .  S
C1967      C1973   1.399       .  A
C1967      C1968   1.417       .  A
C1968      C2385   1.405       .  A
C1968      C1969   1.410       .  A
C1969      H1976   1.081       .  S
C1970      C2383   1.404       .  A
C1970      C1971   1.404       .  A
C1970      H1977   1.083       .  S
C1971      C2387   1.407       .  A
C1971      H1978   1.083       .  S
C1972      C2386   1.406       .  A
C1972      C1973   1.398       .  A
C1973      H1979   1.086       .  S
C1980      C1981   1.399       .  A
C1980      C1985   1.408       .  A
C1981      C1982   1.399       .  A
C1981      H2820   1.083       .  S
C1982      C1983   1.407       .  A
C1982      H1991   1.084       .  S
C1983      C1989   1.395       .  A
C1983      C1984   1.408       .  A
C1984      C1986   1.402       .  A
C1984      C1985   1.392       .  A
C1985      H1992   1.085       .  S
C1986      C1987   1.398       .  A
C1986      H1993   1.080       .  S
C1987      C1988   1.400       .  A
C1987      H1994   1.079       .  S
C1988      C1989   1.415       .  A
C1989      H1995   1.085       .  S
H1990      C2811   1.083       .  S
C1996      C1997   1.403   1_455  A
C1996      C2001   1.422   1_455  A
C1996      C2360   1.489       .  S
C1997      C1998   1.396       .  A
C1997      H2421   1.083       .  S
C1998      C1999   1.407       .  A
C1998      H2007   1.084       .  S
C1999      C2005   1.388       .  A
C1999      C2000   1.404       .  A
C2000      C2002   1.412       .  A
C2000      C2001   1.411       .  A
C2001      H2008   1.085   1_655  S
C2002      C2003   1.413       .  A
C2002      H2009   1.083       .  S
C2003      C2004   1.407       .  A
C2003      H2010   1.082       .  S
C2004      C2005   1.425       .  A
C2005      H2011   1.082       .  S
H2006      C2412   1.083       .  S
C2012      C2013   1.419       .  A
C2012      C2017   1.409       .  A
C2013      C2014   1.376       .  A
C2013      H2022   1.084       .  S
C2014      C2015   1.384       .  A
C2014      H2023   1.085       .  S
C2015      C2021   1.396       .  A
C2015      C2016   1.419       .  A
C2016      C2018   1.403       .  A
C2016      C2017   1.421       .  A
C2017      H2024   1.083       .  S
C2018      C2019   1.407       .  A
C2018      H2025   1.083       .  S
C2019      C2020   1.416       .  A
C2020      C2021   1.394       .  A
C2021      H2857   1.086       .  S
H2027      C2851   1.086       .  S
C2028      C2029   1.400   1_565  A
C2028      C2033   1.404       .  A
C2028      C2318   1.456       .  S
C2029      C2030   1.395       .  A
C2029      H2038   1.083       .  S
C2030      C2031   1.401       .  A
C2030      H2039   1.080       .  S
C2031      C2037   1.391       .  A
C2031      C2032   1.411       .  A
C2032      C2034   1.399       .  A
C2032      C2033   1.395   1_545  A
C2033      H2455   1.086       .  S
C2034      C2035   1.393       .  A
C2034      H2041   1.084   1_545  S
C2035      C2036   1.411       .  A
C2035      H2042   1.083       .  S
C2036      C2037   1.406       .  A
C2037      H2043   1.082       .  S
H2040      C2448   1.086       .  S
C2044      C2045   1.413       .  A
C2044      C2049   1.404       .  A
C2045      C2046   1.382       .  A
C2045      H2054   1.084       .  S
C2046      C2047   1.391       .  A
C2046      H2055   1.084       .  S
C2047      C2053   1.391       .  A
C2047      C2048   1.416       .  A
C2048      C2050   1.400       .  A
C2048      C2049   1.403       .  A
C2049      H2056   1.080       .  S
C2050      C2051   1.396       .  A
C2050      H2057   1.084       .  S
C2051      C2052   1.410       .  A
C2051      H2058   1.082       .  S
C2052      C2053   1.395       .  A
C2060      C2061   1.412       .  A
C2060      C2065   1.417       .  A
C2061      C2062   1.379       .  A
C2061      H2070   1.073       .  S
C2062      C2063   1.388       .  A
C2062      H2071   1.085       .  S
C2063      C2069   1.386   1_554  A
C2063      C2064   1.410       .  A
C2064      C2066   1.407   1_554  A
C2064      C2065   1.409       .  A
C2065      H2072   1.084       .  S
C2066      C2482   1.407       .  A
C2066      H2073   1.083   1_556  S
C2067      C2481   1.407       .  A
C2067      C2483   1.408       .  A
C2067      H2904   1.083       .  S
C2068      C2482   1.407       .  A
C2068      C2069   1.394       .  A
C2068      C2340   1.462       .  S
H2074      C2897   1.083       .  S
C2076      C2077   1.565       .  S
C2076      C2082   1.537       .  S
C2076      C2080   1.554       .  S
C2076      C2475   1.524       .  S
C2077      H2084   1.083       .  S
C2077      C2078   1.386       .  D
C2078      C2079   1.588       .  S
C2078      C2124   1.592       .  S
C2079      C2083   1.546       .  S
C2079      C2081   1.565       .  S
C2079      H2085   1.097       .  S
C2080      H2086   1.075       .  S
C2080      C2081   1.345       .  D
C2081      C2088   1.562       .  S
C2082      H2087   1.088       .  S
C2082      C2083   1.338       .  D
C2083      N2280   1.441       .  S
C2088      C2090   1.543       .  S
C2088      C2092   1.519       .  S
C2088      C2091   1.578       .  S
C2089      C2116   1.582       .  S
C2089      C2093   1.535       .  S
C2089      C2095   1.494       .  S
C2089      C2094   1.612       .  S
C2090      C2098   1.386       .  A
C2090      C2093   1.398       .  A
C2091      C2094   1.425       .  A
C2092      C2106   1.367       .  A
C2092      C2095   1.374       .  A
C2093      C2096   1.386       .  A
C2095      C2103   1.360       .  A
C2096      N2097   1.356       .  A
C2096      H2109   1.083       .  S
N2097      C2242   1.449       .  S
N2097      C2098   1.361       .  A
C2098      H2099   1.081       .  S
C2100      N2101   1.383       .  A
C2100      H2110   1.081       .  S
N2101      C2102   1.368       .  A
N2101      N2183   1.451       .  S
C2102      H2108   1.079       .  S
C2103      N2104   1.329       .  A
C2103      H2105   1.076       .  S
N2104      C2160   1.415       .  S
N2104      C2106   1.341       .  A
C2106      H2107   1.055       .  S
C2111      C2112   1.555       .  S
C2111      C2117   1.551       .  S
C2111      C2115   1.531       .  S
C2111      C2459   1.511       .  S
C2112      H2119   1.074       .  S
C2112      C2113   1.373       .  D
C2113      C2114   1.581       .  S
C2113      C2217   1.581       .  S
C2114      C2118   1.583       .  S
C2114      C2116   1.622       .  S
C2114      H2120   1.106       .  S
C2115      H2121   1.086       .  S
C2115      C2116   1.333       .  D
C2117      H2122   1.086       .  S
C2117      C2118   1.359       .  D
C2118      N2303   1.483       .  S
C2123      C2207   1.527       .  S
C2123      C2125   1.490       .  S
C2123      C2127   1.525       .  S
C2123      C2126   1.539       .  S
C2124      C2128   1.570       .  S
C2124      C2130   1.560       .  S
C2124      C2129   1.616       .  S
C2125      C2133   1.365       .  A
C2125      C2128   1.363       .  A
C2126      C2967   1.380   1_545  A
C2126      C2129   1.426       .  A
C2127      C2141   1.372       .  A
C2127      C2130   1.389       .  A
C2128      C2131   1.391       .  A
C2129      C2965   1.415   1_545  A
C2130      C2138   1.395       .  A
C2131      N2132   1.350       .  A
C2131      H2144   1.045       .  S
N2132      C2151   1.445       .  S
N2132      C2133   1.342       .  A
C2133      H2134   1.075       .  S
C2135      C2959   1.414       .  A
C2135      N2136   1.379       .  A
C2135      H2145   1.081       .  S
N2136      C2137   1.354       .  A
N2136      N2230   1.428       .  S
C2137      C2956   1.377       .  A
C2137      H2143   1.081       .  S
C2138      N2139   1.368       .  A
C2138      H2140   1.082       .  S
N2139      C2163   1.447       .  S
N2139      C2141   1.351       .  A
C2141      H2142   1.077       .  S
C2146      C2147   1.553       .  S
C2146      C2152   1.557       .  S
C2146      C2150   1.540       .  S
C2146      C2451   1.521       .  S
C2147      H2154   1.082       .  S
C2147      C2148   1.346       .  D
C2148      C2149   1.608       .  S
C2148      C2171   1.591       .  S
C2149      C2153   1.619       .  S
C2149      C2151   1.536       .  S
C2149      H2155   1.108       .  S
C2150      H2156   1.086       .  S
C2150      C2151   1.347       .  D
C2152      H2157   1.085       .  S
C2152      C2153   1.370       .  D
C2153      C2264   1.610       .  S
C2158      C2159   1.532       .  S
C2158      C2164   1.578       .  S
C2158      C2162   1.557       .  S
C2158      C2427   1.529       .  S
C2159      H2166   1.088       .  S
C2159      C2160   1.336       .  D
C2160      C2161   1.499       .  S
C2161      C2165   1.585       .  S
C2161      C2163   1.523       .  S
C2161      H2167   1.108       .  S
C2162      H2168   1.086       .  S
C2162      C2163   1.359       .  D
C2164      H2169   1.084       .  S
C2164      C2165   1.393       .  D
C2165      C2288   1.579       .  S
C2170      C2254   1.598       .  S
C2170      C2172   1.505       .  S
C2170      C2174   1.551       .  S
C2170      C2173   1.592       .  S
C2171      C2175   1.504       .  S
C2171      C2177   1.535       .  S
C2171      C2176   1.618       .  S
C2172      C2180   1.373       .  A
C2172      C2175   1.381       .  A
C2173      C2184   1.412       .  A
C2173      C2176   1.435       .  A
C2174      C2188   1.389       .  A
C2174      C2177   1.400       .  A
C2175      C2178   1.353       .  A
C2176      C2182   1.412       .  A
C2177      C2185   1.382       .  A
C2178      N2179   1.324       .  A
C2178      H2191   1.057       .  S
N2179      C2198   1.404       .  S
N2179      C2180   1.333       .  A
C2180      H2181   1.081       .  S
C2182      N2183   1.381       .  A
C2182      H2192   1.082       .  S
N2183      C2184   1.376       .  A
C2184      H2190   1.082       .  S
C2185      N2186   1.359       .  A
C2185      H2187   1.080       .  S
N2186      C2210   1.451       .  S
N2186      C2188   1.360       .  A
C2188      H2189   1.082       .  S
C2193      C2194   1.590       .  S
C2193      C2199   1.552       .  S
C2193      C2197   1.534       .  S
C2193      C2419   1.535       .  S
C2194      H2201   1.084       .  S
C2194      C2195   1.402       .  D
C2195      C2196   1.573       .  S
C2195      C2218   1.579       .  S
C2196      C2200   1.530       .  S
C2196      C2198   1.493       .  S
C2196      H2202   1.111       .  S
C2197      H2203   1.088       .  S
C2197      C2198   1.334       .  D
C2199      H2204   1.086       .  S
C2199      C2200   1.340       .  D
C2200      N2273   1.445       .  S
C2205      C2206   1.537       .  S
C2205      C2211   1.548       .  S
C2205      C2209   1.569       .  S
C2205      C2403   1.514   1_545  S
C2206      H2213   1.085   1_545  S
C2206      C2207   1.353       .  D
C2207      C2208   1.568       .  S
C2208      C2212   1.517       .  S
C2208      C2210   1.529       .  S
C2208      H2214   1.110       .  S
C2209      H2215   1.084       .  S
C2209      C2210   1.377       .  D
C2211      H2216   1.087       .  S
C2211      C2212   1.347       .  D
C2212      N2296   1.432       .  S
C2217      C2219   1.498       .  S
C2217      C2221   1.541       .  S
C2217      C2220   1.619       .  S
C2218      C2222   1.534       .  S
C2218      C2224   1.538       .  S
C2218      C2223   1.555       .  S
C2219      C2227   1.357       .  A
C2219      C2222   1.380       .  A
C2220      C2231   1.408       .  A
C2220      C2223   1.440       .  A
C2221      C2235   1.382       .  A
C2221      C2224   1.379       .  A
C2222      C2225   1.365       .  A
C2223      C2229   1.387       .  A
C2224      C2232   1.373       .  A
C2225      N2226   1.347       .  A
C2225      H2238   1.079       .  S
N2226      C2245   1.417       .  S
N2226      C2227   1.348       .  A
C2227      H2228   1.063       .  S
C2229      N2230   1.364       .  A
C2229      H2239   1.082       .  S
N2230      C2231   1.371       .  A
C2231      H2237   1.079       .  S
C2232      N2233   1.359       .  A
C2232      H2234   1.081       .  S
N2233      C2257   1.457       .  S
N2233      C2235   1.354       .  A
C2235      H2236   1.063       .  S
C2240      C2241   1.561       .  S
C2240      C2246   1.551       .  S
C2240      C2244   1.529       .  S
C2240      C2379   1.524       .  S
C2241      H2248   1.073       .  S
C2241      C2242   1.375       .  D
C2242      C2243   1.520       .  S
C2243      C2247   1.558       .  S
C2243      C2245   1.517       .  S
C2243      H2249   1.109       .  S
C2244      H2250   1.088       .  S
C2244      C2245   1.332       .  D
C2246      H2251   1.082       .  S
C2246      C2247   1.373       .  D
C2247      C2265   1.525       .  S
C2252      C2253   1.558       .  S
C2252      C2258   1.537       .  S
C2252      C2256   1.542       .  S
C2252      C2371   1.532       .  S
C2253      H2260   1.085       .  S
C2253      C2254   1.375       .  D
C2254      C2255   1.613       .  S
C2255      C2259   1.577       .  S
C2255      C2257   1.557       .  S
C2255      H2261   1.110       .  S
C2256      H2262   1.081       .  S
C2256      C2257   1.353       .  D
C2258      H2263   1.073       .  S
C2258      C2259   1.344       .  D
C2259      C2287   1.561       .  S
C2264      C2266   1.560       .  S
C2264      C2268   1.536       .  S
C2264      C2267   1.633       .  S
C2265      C2269   1.501       .  S
C2265      C2271   1.510       .  S
C2265      C2270   1.539       .  S
C2266      C2274   1.393       .  A
C2266      C2269   1.380       .  A
C2267      C2270   1.432       .  A
C2268      C2282   1.387       .  A
C2268      C2271   1.388       .  A
C2269      C2272   1.367       .  A
C2271      C2279   1.367       .  A
C2272      N2273   1.340       .  A
C2272      H2285   1.072       .  S
N2273      C2274   1.368       .  A
C2274      H2275   1.081       .  S
C2276      N2277   1.351       .  A
C2276      H2286   1.082       .  S
N2277      C2278   1.388       .  A
N2277      N2300   1.435       .  S
C2278      H2284   1.082       .  S
C2279      N2280   1.336       .  A
C2279      H2281   1.067       .  S
N2280      C2282   1.356       .  A
C2282      H2283   1.082       .  S
C2287      C2289   1.516       .  S
C2287      C2291   1.544       .  S
C2287      C2290   1.592       .  S
C2288      C2292   1.527       .  S
C2288      C2294   1.551       .  S
C2288      C2293   1.596       .  S
C2289      C2297   1.369       .  A
C2289      C2292   1.370       .  A
C2290      C2301   1.402       .  A
C2290      C2293   1.435       .  A
C2291      C2305   1.390       .  A
C2291      C2294   1.381       .  A
C2292      C2295   1.378       .  A
C2293      C2299   1.410       .  A
C2294      C2302   1.392       .  A
C2295      N2296   1.346       .  A
C2295      H2308   1.080       .  S
N2296      C2297   1.355       .  A
C2297      H2298   1.063       .  S
C2299      N2300   1.378       .  A
C2299      H2309   1.082       .  S
N2300      C2301   1.360       .  A
C2301      H2307   1.077       .  S
C2302      N2303   1.364       .  A
C2302      H2304   1.080       .  S
N2303      C2305   1.367       .  A
C2305      H2306   1.077       .  S
C2310      N2328   1.353       .  A
N2311      N2328   1.317       .  A
N2311      N2333   1.315       .  A
N2311     Co2348   2.064   1_455  S
C2312      N3167   1.340       .  A
C2312      H2357   1.082       .  S
H2313      C2354   1.082       .  S
C2314      N2338   1.338       .  A
C2314      H2343   1.080       .  S
C2314      C3148   1.461       .  S
Co2315     N2333   2.083   1_655  S
Co2315     N2323   2.065       .  S
Co2315     N2355   2.052       .  S
Co2315     N2331   2.110       .  S
Co2315    Cl2359   2.413       .  S
N2316      C3184   1.320       .  A
N2316      N2323   1.314       .  A
N2316     Co2317   2.058       .  S
Co2317     N2320   2.069       .  S
Co2317     N2337   2.045       .  S
Co2317     N2324   2.098       .  S
Co2317    Cl2359   2.438       .  S
C2318      N2356   1.358   1_565  A
C2318      C3144   1.457       .  S
N2319      N2326   1.312       .  A
N2319      N2349   1.304   1_556  A
N2319     Co2352   2.049       .  S
N2320      N2338   1.306   1_556  A
N2320      N3186   1.318   1_556  A
N2321      C3180   1.355       .  A
H2322      C2347   1.082       .  S
N2324      N2342   1.314       .  A
N2324      N3159   1.321       .  A
C2325      N2329   1.358       .  A
C2325      C3183   1.462       .  S
C2325      C2395   1.467       .  S
N2326      C2341   1.353   1_655  A
N2326     Co2348   2.110       .  S
C2327      H2361   1.082       .  S
N2329      N3154   1.321       .  A
C2330      N2351   1.358       .  A
N2331      N2337   1.318       .  A
N2332      C2358   1.323       .  A
N2332      N2334   1.313       .  A
N2332     Co2348   2.026       .  S
N2334      N2362   1.330       .  A
N2334     Co2352   2.102       .  S
H2335      C2358   1.082       .  S
H2336      C2353   1.080       .  S
N2337      C3142   1.339       .  A
N2338     Co2352   2.043   1_554  S
N2339      N2351   1.318       .  A
N2339      N2355   1.319       .  A
N2339     Co2348   2.101       .  S
C2340      N3174   1.355       .  A
C2341      H2345   1.082       .  S
C2341      C2360   1.498   1_556  S
N2342      C2353   1.338       .  A
N2342     Co2352   2.059       .  S
N2344      C3170   1.351       .  A
C2346      N2362   1.356       .  A
C2346      C2358   1.452       .  S
C2346      C2363   1.461       .  S
Co2348    Cl2359   2.468       .  S
N2349      C2360   1.335   1_655  A
C2350      N3151   1.355       .  A
C2350      C2435   1.489       .  S
Co2352    Cl2359   2.408       .  S
C2353      C3155   1.463       .  S
C2354      N3146   1.320       .  A
N2356      N3150   1.319   1_544  A
C2363      C2364   1.402       .  A
C2363      C2368   1.403       .  A
C2364      C2365   1.400       .  A
C2364      H2373   1.084       .  S
C2365      C2366   1.405       .  A
C2365      H2374   1.084       .  S
C2366      C2372   1.402       .  A
C2366      C2367   1.411       .  A
C2367      C2369   1.398       .  A
C2367      C2368   1.396       .  A
C2368      H2375   1.086       .  S
C2369      C2370   1.392       .  A
C2369      H2376   1.084       .  S
C2370      C2371   1.411       .  A
C2370      H2377   1.079       .  S
C2371      C2372   1.414       .  A
C2372      H2378   1.085       .  S
C2379      C2380   1.414       .  A
C2379      C2384   1.409       .  A
C2380      C2381   1.385       .  A
C2380      H2389   1.083       .  S
C2381      C2382   1.391       .  A
C2381      H2390   1.084       .  S
C2382      C2388   1.398       .  A
C2382      C2383   1.417       .  A
C2383      C2384   1.408       .  A
C2384      H2391   1.081       .  S
C2385      C2386   1.403       .  A
C2385      H2392   1.083       .  S
C2386      H2393   1.083       .  S
C2387      C2388   1.397       .  A
C2388      H2394   1.086       .  S
C2395      C2396   1.400       .  A
C2395      C2400   1.406       .  A
C2396      C2397   1.400       .  A
C2396      H3235   1.083       .  S
C2397      C2398   1.406       .  A
C2397      H2406   1.084       .  S
C2398      C2404   1.395       .  A
C2398      C2399   1.409       .  A
C2399      C2401   1.400       .  A
C2399      C2400   1.392       .  A
C2400      H2407   1.085       .  S
C2401      C2402   1.396       .  A
C2401      H2408   1.079       .  S
C2402      C2403   1.401       .  A
C2402      H2409   1.079       .  S
C2403      C2404   1.414       .  A
C2404      H2410   1.085       .  S
H2405      C3226   1.083       .  S
C2411      C2412   1.401   1_455  A
C2411      C2416   1.425   1_455  A
C2412      C2413   1.396       .  A
C2413      C2414   1.408       .  A
C2413      H2422   1.084       .  S
C2414      C2420   1.387       .  A
C2414      C2415   1.402       .  A
C2415      C2417   1.413       .  A
C2415      C2416   1.411       .  A
C2416      H2423   1.085   1_655  S
C2417      C2418   1.413       .  A
C2417      H2424   1.083       .  S
C2418      C2419   1.408       .  A
C2418      H2425   1.082       .  S
C2419      C2420   1.428       .  A
C2420      H2426   1.080       .  S
C2427      C2428   1.419       .  A
C2427      C2432   1.409       .  A
C2428      C2429   1.378       .  A
C2428      H2437   1.084       .  S
C2429      C2430   1.386       .  A
C2429      H2438   1.085       .  S
C2430      C2436   1.397       .  A
C2430      C2431   1.419       .  A
C2431      C2433   1.404       .  A
C2431      C2432   1.421       .  A
C2432      H2439   1.083       .  S
C2433      C2434   1.408       .  A
C2433      H2440   1.083       .  S
C2434      C2435   1.415       .  A
C2435      C2436   1.395       .  A
C2436      H3272   1.086       .  S
H2442      C3266   1.086       .  S
C2443      C2444   1.401   1_565  A
C2443      C2448   1.404       .  A
C2444      C2445   1.396       .  A
C2444      H2453   1.083       .  S
C2445      C2446   1.402       .  A
C2445      H2454   1.081       .  S
C2446      C2452   1.393       .  A
C2446      C2447   1.411       .  A
C2447      C2449   1.399       .  A
C2447      C2448   1.394   1_545  A
C2449      C2450   1.392       .  A
C2449      H2456   1.084   1_545  S
C2450      C2451   1.410       .  A
C2450      H2457   1.083       .  S
C2451      C2452   1.408       .  A
C2452      H2458   1.082       .  S
C2459      C2460   1.412       .  A
C2459      C2464   1.406       .  A
C2460      C2461   1.383       .  A
C2460      H2469   1.084       .  S
C2461      C2462   1.391       .  A
C2461      H2470   1.084       .  S
C2462      C2468   1.391       .  A
C2462      C2463   1.416       .  A
C2463      C2465   1.401       .  A
C2463      C2464   1.402       .  A
C2464      H2471   1.080       .  S
C2465      C2466   1.397       .  A
C2465      H2472   1.084       .  S
C2466      C2467   1.409       .  A
C2466      H2473   1.082       .  S
C2467      C2468   1.395       .  A
C2475      C2476   1.418       .  A
C2475      C2480   1.417       .  A
C2476      C2477   1.377       .  A
C2476      H2485   1.074       .  S
C2477      C2478   1.384       .  A
C2477      H2486   1.085       .  S
C2478      C2484   1.388       .  A
C2478      C2479   1.411       .  A
C2479      C2481   1.407       .  A
C2479      C2480   1.412       .  A
C2480      H2487   1.083       .  S
C2481      H2488   1.083       .  S
C2482      H3319   1.083       .  S
C2483      C2484   1.390       .  A
H2489      C3312   1.083       .  S
C2491      C2492   1.567       .  S
C2491      C2497   1.538       .  S
C2491      C2495   1.555       .  S
C2491      C2890   1.524       .  S
C2492      H2499   1.083       .  S
C2492      C2493   1.386       .  D
C2493      C2494   1.587       .  S
C2493      C2539   1.592       .  S
C2494      C2498   1.545       .  S
C2494      C2496   1.566       .  S
C2494      H2500   1.096       .  S
C2495      H2501   1.076       .  S
C2495      C2496   1.345       .  D
C2496      C2503   1.563       .  S
C2497      H2502   1.088       .  S
C2497      C2498   1.337       .  D
C2498      N2695   1.440       .  S
C2503      C2505   1.544       .  S
C2503      C2507   1.520       .  S
C2503      C2506   1.578       .  S
C2504      C2531   1.582       .  S
C2504      C2508   1.535       .  S
C2504      C2510   1.495       .  S
C2504      C2509   1.611       .  S
C2505      C2513   1.387       .  A
C2505      C2508   1.397       .  A
C2506      C2509   1.425       .  A
C2507      C2521   1.367       .  A
C2507      C2510   1.375       .  A
C2508      C2511   1.386       .  A
C2510      C2518   1.360       .  A
C2511      N2512   1.357       .  A
C2511      H2524   1.082       .  S
N2512      C2657   1.449       .  S
N2512      C2513   1.362       .  A
C2513      H2514   1.081       .  S
C2515      N2516   1.383       .  A
C2515      H2525   1.081       .  S
N2516      C2517   1.367       .  A
N2516      N2598   1.450       .  S
C2517      H2523   1.079       .  S
C2518      N2519   1.328       .  A
C2518      H2520   1.075       .  S
N2519      C2575   1.415       .  S
N2519      C2521   1.340       .  A
C2521      H2522   1.055       .  S
C2526      C2527   1.555       .  S
C2526      C2532   1.552       .  S
C2526      C2530   1.531       .  S
C2526      C2874   1.510       .  S
C2527      H2534   1.076       .  S
C2527      C2528   1.371       .  D
C2528      C2529   1.582       .  S
C2528      C2632   1.580       .  S
C2529      C2533   1.584       .  S
C2529      C2531   1.622       .  S
C2529      H2535   1.106       .  S
C2530      H2536   1.086       .  S
C2530      C2531   1.333       .  D
C2532      H2537   1.086       .  S
C2532      C2533   1.360       .  D
C2533      N2718   1.485       .  S
C2538      C2622   1.526       .  S
C2538      C2540   1.490       .  S
C2538      C2542   1.525       .  S
C2538      C2541   1.537       .  S
C2539      C2543   1.571       .  S
C2539      C2545   1.560       .  S
C2539      C2544   1.618       .  S
C2540      C2548   1.365       .  A
C2540      C2543   1.362       .  A
C2541      C2544   1.426       .  A
C2542      C2556   1.371       .  A
C2542      C2545   1.389       .  A
C2543      C2546   1.392       .  A
C2545      C2553   1.394       .  A
C2546      N2547   1.350       .  A
C2546      H2559   1.045       .  S
N2547      C2566   1.445       .  S
N2547      C2548   1.341       .  A
C2548      H2549   1.075       .  S
C2550      N2551   1.379       .  A
C2550      H2560   1.081       .  S
N2551      C2552   1.355       .  A
N2551      N2645   1.428       .  S
C2552      H2558   1.082       .  S
C2553      N2554   1.368       .  A
C2553      H2555   1.082       .  S
N2554      C2578   1.447       .  S
N2554      C2556   1.351       .  A
C2556      H2557   1.077       .  S
C2561      C2562   1.554       .  S
C2561      C2567   1.554       .  S
C2561      C2565   1.540       .  S
C2561      C2866   1.519       .  S
C2562      H2569   1.082       .  S
C2562      C2563   1.346       .  D
C2563      C2564   1.606       .  S
C2563      C2586   1.589       .  S
C2564      C2568   1.616       .  S
C2564      C2566   1.536       .  S
C2564      H2570   1.108       .  S
C2565      H2571   1.086       .  S
C2565      C2566   1.346       .  D
C2567      H2572   1.085       .  S
C2567      C2568   1.368       .  D
C2568      C2679   1.604       .  S
C2573      C2574   1.532       .  S
C2573      C2579   1.581       .  S
C2573      C2577   1.556       .  S
C2573      C2842   1.530       .  S
C2574      H2581   1.088       .  S
C2574      C2575   1.336       .  D
C2575      C2576   1.497       .  S
C2576      C2580   1.585       .  S
C2576      C2578   1.524       .  S
C2576      H2582   1.107       .  S
C2577      H2583   1.086       .  S
C2577      C2578   1.357       .  D
C2579      H2584   1.084       .  S
C2579      C2580   1.396       .  D
C2580      C2703   1.584       .  S
C2585      C2669   1.593       .  S
C2585      C2587   1.507       .  S
C2585      C2589   1.549       .  S
C2585      C2588   1.589       .  S
C2586      C2590   1.504       .  S
C2586      C2592   1.534       .  S
C2586      C2591   1.618       .  S
C2587      C2595   1.374       .  A
C2587      C2590   1.380       .  A
C2588      C2599   1.410       .  A
C2588      C2591   1.434       .  A
C2589      C2603   1.389       .  A
C2589      C2592   1.399       .  A
C2590      C2593   1.354       .  A
C2591      C2597   1.412       .  A
C2592      C2600   1.382       .  A
C2593      N2594   1.323       .  A
C2593      H2606   1.054       .  S
N2594      C2613   1.405       .  S
N2594      C2595   1.335       .  A
C2595      H2596   1.081       .  S
C2597      N2598   1.381       .  A
C2597      H2607   1.082       .  S
N2598      C2599   1.375       .  A
C2599      H2605   1.081       .  S
C2600      N2601   1.359       .  A
C2600      H2602   1.080       .  S
N2601      C2625   1.451       .  S
N2601      C2603   1.359       .  A
C2603      H2604   1.082       .  S
C2608      C2609   1.589       .  S
C2608      C2614   1.551       .  S
C2608      C2612   1.535       .  S
C2608      C2834   1.535       .  S
C2609      H2616   1.084       .  S
C2609      C2610   1.402       .  D
C2610      C2611   1.571       .  S
C2610      C2633   1.576       .  S
C2611      C2615   1.529       .  S
C2611      C2613   1.494       .  S
C2611      H2617   1.111       .  S
C2612      H2618   1.088       .  S
C2612      C2613   1.333       .  D
C2614      H2619   1.086       .  S
C2614      C2615   1.339       .  D
C2615      N2688   1.443       .  S
C2620      C2621   1.538       .  S
C2620      C2626   1.547       .  S
C2620      C2624   1.570       .  S
C2620      C2818   1.514       .  S
C2621      H2628   1.085       .  S
C2621      C2622   1.353       .  D
C2622      C2623   1.568       .  S
C2623      C2627   1.517       .  S
C2623      C2625   1.529       .  S
C2623      H2629   1.109       .  S
C2624      H2630   1.084       .  S
C2624      C2625   1.378       .  D
C2626      H2631   1.087       .  S
C2626      C2627   1.346       .  D
C2627      N2711   1.431       .  S
C2632      C2634   1.499       .  S
C2632      C2636   1.539       .  S
C2632      C2635   1.622       .  S
C2633      C2637   1.536       .  S
C2633      C2639   1.537       .  S
C2633      C2638   1.551       .  S
C2634      C2642   1.358       .  A
C2634      C2637   1.380       .  A
C2635      C2646   1.410       .  A
C2635      C2638   1.439       .  A
C2636      C2650   1.381       .  A
C2636      C2639   1.377       .  A
C2637      C2640   1.365       .  A
C2638      C2644   1.385       .  A
C2639      C2647   1.372       .  A
C2640      N2641   1.348       .  A
C2640      H2653   1.079       .  S
N2641      C2660   1.419       .  S
N2641      C2642   1.348       .  A
C2642      H2643   1.064       .  S
C2644      N2645   1.362       .  A
C2644      H2654   1.082       .  S
N2645      C2646   1.374       .  A
C2646      H2652   1.079       .  S
C2647      N2648   1.359       .  A
C2647      H2649   1.081       .  S
N2648      C2672   1.455       .  S
N2648      C2650   1.353       .  A
C2650      H2651   1.062       .  S
C2655      C2656   1.562   1_556  S
C2655      C2661   1.549       .  S
C2655      C2659   1.531   1_556  S
C2655      C2794   1.525       .  S
C2656      H2663   1.073       .  S
C2656      C2657   1.376       .  D
C2657      C2658   1.519       .  S
C2658      C2662   1.558       .  S
C2658      C2660   1.517       .  S
C2658      H2664   1.109       .  S
C2659      H2665   1.088       .  S
C2659      C2660   1.332       .  D
C2661      H2666   1.082       .  S
C2661      C2662   1.371   1_556  D
C2662      C2680   1.522       .  S
C2667      C2668   1.554       .  S
C2667      C2673   1.540       .  S
C2667      C2671   1.542       .  S
C2667      C2786   1.529       .  S
C2668      H2675   1.085       .  S
C2668      C2669   1.372       .  D
C2669      C2670   1.612       .  S
C2670      C2674   1.579       .  S
C2670      C2672   1.556       .  S
C2670      H2676   1.110       .  S
C2671      H2677   1.081       .  S
C2671      C2672   1.353       .  D
C2673      H2678   1.074       .  S
C2673      C2674   1.346       .  D
C2674      C2702   1.564       .  S
C2679      C2681   1.560       .  S
C2679      C2683   1.536       .  S
C2679      C2682   1.628   1_554  S
C2680      C2684   1.500       .  S
C2680      C2686   1.509       .  S
C2680      C2685   1.540   1_554  S
C2681      C2689   1.392       .  A
C2681      C2684   1.379       .  A
C2682      C3108   1.424       .  A
C2682      C2685   1.431       .  A
C2683      C2697   1.387       .  A
C2683      C2686   1.387       .  A
C2684      C2687   1.366       .  A
C2685      C3106   1.377       .  A
C2686      C2694   1.366       .  A
C2687      N2688   1.339       .  A
C2687      H2700   1.072       .  S
N2688      C2689   1.367       .  A
C2689      H2690   1.081       .  S
C2691      C3100   1.378       .  A
C2691      N2692   1.351       .  A
C2691      H2701   1.082       .  S
N2692      C2693   1.390       .  A
N2692      N2715   1.437       .  S
C2693      C3097   1.427       .  A
C2693      H2699   1.082       .  S
C2694      N2695   1.335       .  A
C2694      H2696   1.067       .  S
N2695      C2697   1.356       .  A
C2697      H2698   1.082       .  S
C2702      C2704   1.515       .  S
C2702      C2706   1.545       .  S
C2702      C2705   1.594       .  S
C2703      C2707   1.527       .  S
C2703      C2709   1.553       .  S
C2703      C2708   1.598       .  S
C2704      C2712   1.368       .  A
C2704      C2707   1.370       .  A
C2705      C2716   1.403       .  A
C2705      C2708   1.436       .  A
C2706      C2720   1.391       .  A
C2706      C2709   1.381       .  A
C2707      C2710   1.378       .  A
C2708      C2714   1.411       .  A
C2709      C2717   1.393       .  A
C2710      N2711   1.345       .  A
C2710      H2723   1.080       .  S
N2711      C2712   1.355       .  A
C2712      H2713   1.063       .  S
C2714      N2715   1.379       .  A
C2714      H2724   1.082       .  S
N2715      C2716   1.362       .  A
C2716      H2722   1.077       .  S
C2717      N2718   1.366       .  A
C2717      H2719   1.080       .  S
N2718      C2720   1.367       .  A
C2720      H2721   1.077       .  S
C2725      N2743   1.350       .  A
N2726      N2743   1.316       .  A
N2726      N2748   1.314       .  A
N2726     Co2763   2.055   1_455  S
C2727      H2772   1.082       .  S
H2728      C2769   1.082       .  S
C2729      N2753   1.338       .  A
C2729      H2758   1.080       .  S
Co2730     N2748   2.091   1_655  S
Co2730     N2738   2.070   1_565  S
Co2730     N2770   2.064       .  S
Co2730     N2746   2.113   1_565  S
Co2730    Cl2774   2.415       .  S
N2731      N2738   1.314       .  A
N2731     Co2732   2.052       .  S
Co2732     N2735   2.074   1_545  S
Co2732     N2752   2.047       .  S
Co2732     N2739   2.099   1_545  S
Co2732    Cl2774   2.437   1_545  S
C2733      N2771   1.358       .  A
C2733      C3273   1.459       .  S
N2734      N2741   1.311       .  A
N2734      N2764   1.305       .  A
N2734     Co2767   2.052       .  S
N2735      N2753   1.305       .  A
H2737      C2762   1.082   1_545  S
N2739      N2757   1.314       .  A
C2740      N2744   1.357       .  A
C2740      C2810   1.467       .  S
N2741      C2756   1.351   1_655  A
N2741     Co2763   2.104       .  S
C2742      H2776   1.082       .  S
C2745      N2766   1.356       .  A
N2746      N2752   1.320       .  A
N2747      C2773   1.319       .  A
N2747      N2749   1.312       .  A
N2747     Co2763   2.011       .  S
N2749      N2777   1.330       .  A
N2749     Co2767   2.109       .  S
H2750      C2773   1.082       .  S
H2751      C2768   1.080       .  S
N2753     Co2767   2.040       .  S
N2754      N2766   1.318       .  A
N2754      N2770   1.319       .  A
N2754     Co2763   2.093       .  S
C2755      C3313   1.461       .  S
C2756      H2760   1.082       .  S
C2756      C2775   1.498       .  S
N2757      C2768   1.337       .  A
N2757     Co2767   2.058       .  S
C2761      N2777   1.357       .  A
C2761      C2773   1.447       .  S
C2761      C2778   1.461       .  S
Co2763    Cl2774   2.467       .  S
N2764      C2775   1.334   1_655  A
C2765      C2850   1.489       .  S
Co2767    Cl2774   2.406       .  S
C2775      C3241   1.489       .  S
C2778      C2779   1.401       .  A
C2778      C2783   1.406       .  A
C2779      C2780   1.399       .  A
C2779      H2788   1.084       .  S
C2780      C2781   1.404       .  A
C2780      H2789   1.084       .  S
C2781      C2787   1.401       .  A
C2781      C2782   1.411       .  A
C2782      C2784   1.399       .  A
C2782      C2783   1.396       .  A
C2783      H2790   1.086       .  S
C2784      C2785   1.393       .  A
C2784      H2791   1.084       .  S
C2785      C2786   1.411       .  A
C2785      H2792   1.080       .  S
C2786      C2787   1.412       .  A
C2787      H2793   1.085       .  S
C2794      C2795   1.414       .  A
C2794      C2799   1.410       .  A
C2795      C2796   1.385       .  A
C2795      H2804   1.083   1_556  S
C2796      C2797   1.391       .  A
C2796      H2805   1.084       .  S
C2797      C2803   1.399       .  A
C2797      C2798   1.417       .  A
C2798      C3215   1.405       .  A
C2798      C2799   1.409       .  A
C2799      H2806   1.081       .  S
C2800      C3213   1.405       .  A
C2800      C2801   1.404       .  A
C2800      H2807   1.083       .  S
C2801      C3217   1.407       .  A
C2801      H2808   1.083       .  S
C2802      C3216   1.408       .  A
C2802      C2803   1.397       .  A
C2803      H2809   1.086       .  S
C2810      C2811   1.399       .  A
C2810      C2815   1.407       .  A
C2811      C2812   1.400       .  A
C2812      C2813   1.406       .  A
C2812      H2821   1.084       .  S
C2813      C2819   1.395       .  A
C2813      C2814   1.408       .  A
C2814      C2816   1.401       .  A
C2814      C2815   1.392       .  A
C2815      H2822   1.085       .  S
C2816      C2817   1.397       .  A
C2816      H2823   1.078       .  S
C2817      C2818   1.400       .  A
C2817      H2824   1.079       .  S
C2818      C2819   1.414       .  A
C2819      H2825   1.085       .  S
C2826      C2827   1.400       .  A
C2826      C2831   1.424       .  A
C2826      C3190   1.488   1_655  S
C2827      C2828   1.394       .  A
C2827      H3251   1.083   1_554  S
C2828      C2829   1.408       .  A
C2828      H2837   1.084       .  S
C2829      C2835   1.386       .  A
C2829      C2830   1.401       .  A
C2830      C2832   1.413       .  A
C2830      C2831   1.409       .  A
C2831      H2838   1.085   1_655  S
C2832      C2833   1.413       .  A
C2832      H2839   1.083       .  S
C2833      C2834   1.408       .  A
C2833      H2840   1.082       .  S
C2834      C2835   1.428       .  A
C2835      H2841   1.080       .  S
H2836      C3242   1.083       .  S
C2842      C2843   1.420       .  A
C2842      C2847   1.409       .  A
C2843      C2844   1.379       .  A
C2843      H2852   1.084       .  S
C2844      C2845   1.386       .  A
C2844      H2853   1.085       .  S
C2845      C2851   1.398       .  A
C2845      C2846   1.419       .  A
C2846      C2848   1.403       .  A
C2846      C2847   1.421       .  A
C2847      H2854   1.083       .  S
C2848      C2849   1.407       .  A
C2848      H2855   1.083       .  S
C2849      C2850   1.415       .  A
C2850      C2851   1.396       .  A
C2858      C2859   1.401       .  A
C2858      C2863   1.404       .  A
C2858      C3148   1.456       .  S
C2859      C2860   1.396       .  A
C2859      H2868   1.082       .  S
C2860      C2861   1.401       .  A
C2860      H2869   1.081       .  S
C2861      C2867   1.392       .  A
C2861      C2862   1.411       .  A
C2862      C2864   1.399       .  A
C2862      C2863   1.394       .  A
C2863      H3285   1.086       .  S
C2864      C2865   1.392       .  A
C2864      H2871   1.084       .  S
C2865      C2866   1.411       .  A
C2865      H2872   1.083       .  S
C2866      C2867   1.407       .  A
C2867      H2873   1.082       .  S
H2870      C3278   1.086       .  S
C2874      C2875   1.412       .  A
C2874      C2879   1.406       .  A
C2875      C2876   1.383       .  A
C2875      H2884   1.084       .  S
C2876      C2877   1.392       .  A
C2876      H2885   1.084       .  S
C2877      C2883   1.391       .  A
C2877      C2878   1.416       .  A
C2878      C2880   1.401       .  A
C2878      C2879   1.402       .  A
C2879      H2886   1.079       .  S
C2880      C2881   1.397       .  A
C2880      H2887   1.084       .  S
C2881      C2882   1.409       .  A
C2881      H2888   1.082       .  S
C2882      C2883   1.395       .  A
C2890      C2891   1.419       .  A
C2890      C2895   1.417       .  A
C2891      C2892   1.378       .  A
C2891      H2900   1.074       .  S
C2892      C2893   1.385   1_554  A
C2892      H2901   1.085       .  S
C2893      C2899   1.389       .  A
C2893      C2894   1.412   1_556  A
C2894      C2896   1.407   1_554  A
C2894      C2895   1.412       .  A
C2895      H2902   1.083       .  S
C2896      C3312   1.407       .  A
C2896      H2903   1.083   1_556  S
C2897      C3311   1.408       .  A
C2897      C3313   1.408       .  A
C2898      C3312   1.408       .  A
C2898      C2899   1.391       .  A
C2898      C3170   1.459       .  S
C2906      C2907   1.562       .  S
C2906      C2912   1.540       .  S
C2906      C2910   1.554       .  S
C2906      C3305   1.524       .  S
C2907      H2914   1.083       .  S
C2907      C2908   1.383       .  D
C2908      C2909   1.588       .  S
C2908      C2954   1.587       .  S
C2909      C2913   1.549       .  S
C2909      C2911   1.566       .  S
C2909      H2915   1.098       .  S
C2910      H2916   1.072       .  S
C2910      C2911   1.344       .  D
C2911      C2918   1.562       .  S
C2912      H2917   1.088       .  S
C2912      C2913   1.341       .  D
C2913      N3110   1.444       .  S
C2918      C2920   1.542       .  S
C2918      C2922   1.520       .  S
C2918      C2921   1.582       .  S
C2919      C2946   1.588       .  S
C2919      C2923   1.538       .  S
C2919      C2925   1.495       .  S
C2919      C2924   1.617       .  S
C2920      C2928   1.385       .  A
C2920      C2923   1.396       .  A
C2921      C2924   1.425       .  A
C2922      C2936   1.367       .  A
C2922      C2925   1.374       .  A
C2923      C2926   1.386       .  A
C2925      C2933   1.359       .  A
C2926      N2927   1.358       .  A
C2926      H2939   1.082       .  S
N2927      C3072   1.449       .  S
N2927      C2928   1.362       .  A
C2928      H2929   1.081       .  S
C2930      N2931   1.383       .  A
C2930      H2940   1.081       .  S
N2931      C2932   1.365       .  A
N2931      N3013   1.448       .  S
C2932      H2938   1.079       .  S
C2933      N2934   1.329       .  A
C2933      H2935   1.076       .  S
N2934      C2990   1.416       .  S
N2934      C2936   1.341       .  A
C2936      H2937   1.054       .  S
C2941      C2942   1.557       .  S
C2941      C2947   1.550       .  S
C2941      C2945   1.532       .  S
C2941      C3289   1.510       .  S
C2942      H2949   1.075       .  S
C2942      C2943   1.373       .  D
C2943      C2944   1.582       .  S
C2943      C3047   1.583       .  S
C2944      C2948   1.585       .  S
C2944      C2946   1.627       .  S
C2944      H2950   1.106       .  S
C2945      H2951   1.087       .  S
C2945      C2946   1.333       .  D
C2947      H2952   1.086       .  S
C2947      C2948   1.358       .  D
C2948      N3133   1.484       .  S
C2953      C3037   1.522       .  S
C2953      C2955   1.491       .  S
C2953      C2957   1.525       .  S
C2953      C2956   1.535       .  S
C2954      C2958   1.568       .  S
C2954      C2960   1.557       .  S
C2954      C2959   1.616       .  S
C2955      C2963   1.367       .  A
C2955      C2958   1.362       .  A
C2956      C2959   1.426       .  A
C2957      C2971   1.371       .  A
C2957      C2960   1.388       .  A
C2958      C2961   1.389       .  A
C2960      C2968   1.393       .  A
C2961      N2962   1.350       .  A
C2961      H2974   1.045       .  S
N2962      C2981   1.445       .  S
N2962      C2963   1.342       .  A
C2963      H2964   1.075       .  S
C2965      N2966   1.380       .  A
C2965      H2975   1.081       .  S
N2966      C2967   1.356       .  A
N2966      N3060   1.430       .  S
C2967      H2973   1.081       .  S
C2968      N2969   1.367       .  A
C2968      H2970   1.082       .  S
N2969      C2993   1.445       .  S
N2969      C2971   1.351       .  A
C2971      H2972   1.077       .  S
C2976      C2977   1.554       .  S
C2976      C2982   1.557       .  S
C2976      C2980   1.541       .  S
C2976      C3281   1.523       .  S
C2977      H2984   1.083       .  S
C2977      C2978   1.347       .  D
C2978      C2979   1.607       .  S
C2978      C3001   1.591       .  S
C2979      C2983   1.617       .  S
C2979      C2981   1.536       .  S
C2979      H2985   1.108       .  S
C2980      H2986   1.086       .  S
C2980      C2981   1.346       .  D
C2982      H2987   1.085       .  S
C2982      C2983   1.370       .  D
C2983      C3094   1.610       .  S
C2988      C2989   1.532       .  S
C2988      C2994   1.579       .  S
C2988      C2992   1.555       .  S
C2988      C3257   1.528       .  S
C2989      H2996   1.088       .  S
C2989      C2990   1.336       .  D
C2990      C2991   1.497       .  S
C2991      C2995   1.584       .  S
C2991      C2993   1.522       .  S
C2991      H2997   1.107       .  S
C2992      H2998   1.086       .  S
C2992      C2993   1.357       .  D
C2994      H2999   1.084       .  S
C2994      C2995   1.394       .  D
C2995      C3118   1.578       .  S
C3000      C3084   1.593       .  S
C3000      C3002   1.504       .  S
C3000      C3004   1.548       .  S
C3000      C3003   1.585       .  S
C3001      C3005   1.506       .  S
C3001      C3007   1.535       .  S
C3001      C3006   1.618       .  S
C3002      C3010   1.372       .  A
C3002      C3005   1.382       .  A
C3003      C3014   1.407       .  A
C3003      C3006   1.434       .  A
C3004      C3018   1.387       .  A
C3004      C3007   1.401       .  A
C3005      C3008   1.354       .  A
C3006      C3012   1.412       .  A
C3007      C3015   1.382       .  A
C3008      N3009   1.324       .  A
C3008      H3021   1.053       .  S
N3009      C3028   1.403       .  S
N3009      C3010   1.331       .  A
C3010      H3011   1.081       .  S
C3012      N3013   1.381       .  A
C3012      H3022   1.082       .  S
N3013      C3014   1.372       .  A
C3014      H3020   1.081       .  S
C3015      N3016   1.359       .  A
C3015      H3017   1.080       .  S
N3016      C3040   1.448       .  S
N3016      C3018   1.359       .  A
C3018      H3019   1.082       .  S
C3023      C3024   1.587       .  S
C3023      C3029   1.554       .  S
C3023      C3027   1.534       .  S
C3023      C3249   1.533       .  S
C3024      H3031   1.084       .  S
C3024      C3025   1.399       .  D
C3025      C3026   1.576       .  S
C3025      C3048   1.580       .  S
C3026      C3030   1.531       .  S
C3026      C3028   1.491       .  S
C3026      H3032   1.110       .  S
C3027      H3033   1.088       .  S
C3027      C3028   1.335       .  D
C3029      H3034   1.085       .  S
C3029      C3030   1.342       .  D
C3030      N3103   1.447       .  S
C3035      C3036   1.537       .  S
C3035      C3041   1.546       .  S
C3035      C3039   1.568       .  S
C3035      C3233   1.512       .  S
C3036      H3043   1.085       .  S
C3036      C3037   1.352       .  D
C3037      C3038   1.565       .  S
C3038      C3042   1.517       .  S
C3038      C3040   1.529       .  S
C3038      H3044   1.110       .  S
C3039      H3045   1.084       .  S
C3039      C3040   1.379       .  D
C3041      H3046   1.087       .  S
C3041      C3042   1.345       .  D
C3042      N3126   1.431       .  S
C3047      C3049   1.499       .  S
C3047      C3051   1.542       .  S
C3047      C3050   1.622       .  S
C3048      C3052   1.533       .  S
C3048      C3054   1.539       .  S
C3048      C3053   1.557       .  S
C3049      C3057   1.359       .  A
C3049      C3052   1.379       .  A
C3050      C3061   1.410       .  A
C3050      C3053   1.440       .  A
C3051      C3065   1.382       .  A
C3051      C3054   1.380       .  A
C3052      C3055   1.364       .  A
C3053      C3059   1.389       .  A
C3054      C3062   1.375       .  A
C3055      N3056   1.347       .  A
C3055      H3068   1.079       .  S
N3056      C3075   1.417       .  S
N3056      C3057   1.349       .  A
C3057      H3058   1.064       .  S
C3059      N3060   1.365       .  A
C3059      H3069   1.082       .  S
N3060      C3061   1.373       .  A
C3061      H3067   1.079       .  S
C3062      N3063   1.359       .  A
C3062      H3064   1.081       .  S
N3063      C3087   1.458       .  S
N3063      C3065   1.355       .  A
C3065      H3066   1.063       .  S
C3070      C3071   1.563       .  S
C3070      C3076   1.551       .  S
C3070      C3074   1.528       .  S
C3070      C3209   1.526       .  S
C3071      H3078   1.072       .  S
C3071      C3072   1.375       .  D
C3072      C3073   1.519       .  S
C3073      C3077   1.560       .  S
C3073      C3075   1.517       .  S
C3073      H3079   1.109       .  S
C3074      H3080   1.088       .  S
C3074      C3075   1.331       .  D
C3076      H3081   1.082       .  S
C3076      C3077   1.374       .  D
C3077      C3095   1.525       .  S
C3082      C3083   1.553       .  S
C3082      C3088   1.537       .  S
C3082      C3086   1.546       .  S
C3082      C3201   1.528       .  S
C3083      H3090   1.084       .  S
C3083      C3084   1.372       .  D
C3084      C3085   1.613       .  S
C3085      C3089   1.577       .  S
C3085      C3087   1.556       .  S
C3085      H3091   1.110       .  S
C3086      H3092   1.080       .  S
C3086      C3087   1.354       .  D
C3088      H3093   1.074       .  S
C3088      C3089   1.345       .  D
C3089      C3117   1.559       .  S
C3094      C3096   1.564       .  S
C3094      C3098   1.538       .  S
C3094      C3097   1.633       .  S
C3095      C3099   1.501       .  S
C3095      C3101   1.511       .  S
C3095      C3100   1.540       .  S
C3096      C3104   1.396       .  A
C3096      C3099   1.379       .  A
C3097      C3100   1.432       .  A
C3098      C3112   1.389       .  A
C3098      C3101   1.387       .  A
C3099      C3102   1.368       .  A
C3101      C3109   1.368       .  A
C3102      N3103   1.340       .  A
C3102      H3115   1.072       .  S
N3103      C3104   1.369       .  A
C3104      H3105   1.082       .  S
C3106      N3107   1.351       .  A
C3106      H3116   1.082       .  S
N3107      C3108   1.388       .  A
N3107      N3130   1.435       .  S
C3108      H3114   1.082       .  S
C3109      N3110   1.336       .  A
C3109      H3111   1.066       .  S
N3110      C3112   1.357       .  A
C3112      H3113   1.082       .  S
C3117      C3119   1.515       .  S
C3117      C3121   1.545       .  S
C3117      C3120   1.595       .  S
C3118      C3122   1.527       .  S
C3118      C3124   1.552       .  S
C3118      C3123   1.592       .  S
C3119      C3127   1.370       .  A
C3119      C3122   1.368       .  A
C3120      C3131   1.404       .  A
C3120      C3123   1.435       .  A
C3121      C3135   1.390       .  A
C3121      C3124   1.380       .  A
C3122      C3125   1.377       .  A
C3123      C3129   1.407       .  A
C3124      C3132   1.393       .  A
C3125      N3126   1.345       .  A
C3125      H3138   1.080       .  S
N3126      C3127   1.355       .  A
C3127      H3128   1.064       .  S
C3129      N3130   1.377       .  A
C3129      H3139   1.082       .  S
N3130      C3131   1.362       .  A
C3131      H3137   1.077       .  S
C3132      N3133   1.365       .  A
C3132      H3134   1.079       .  S
N3133      C3135   1.367       .  A
C3135      H3136   1.077       .  S
C3140      N3158   1.352       .  A
N3141      N3158   1.316       .  A
N3141      N3163   1.314       .  A
N3141     Co3178   2.061   1_455  S
C3142      H3187   1.082       .  S
H3143      C3184   1.082       .  S
C3144      N3168   1.336       .  A
C3144      H3173   1.080       .  S
Co3145     N3163   2.084   1_655  S
Co3145     N3153   2.075   1_565  S
Co3145     N3185   2.064       .  S
Co3145     N3161   2.109   1_565  S
Co3145    Cl3189   2.414       .  S
N3146      N3153   1.316       .  A
N3146     Co3147   2.061       .  S
Co3147     N3150   2.074   1_545  S
Co3147     N3167   2.047       .  S
Co3147     N3154   2.106   1_545  S
Co3147    Cl3189   2.439   1_545  S
C3148      N3186   1.356       .  A
N3149      N3156   1.312       .  A
N3149      N3179   1.304   1_556  A
N3149     Co3182   2.058       .  S
N3150      N3168   1.304   1_556  A
H3152      C3177   1.082   1_545  S
N3154      N3172   1.315       .  A
C3155      N3159   1.356       .  A
C3155      C3225   1.466       .  S
N3156      C3171   1.352   1_655  A
N3156     Co3178   2.108       .  S
C3157      H3191   1.082       .  S
C3160      N3181   1.357       .  A
N3161      N3167   1.319       .  A
N3162      C3188   1.322       .  A
N3162      N3164   1.311       .  A
N3162     Co3178   2.010       .  S
N3164      N3192   1.330       .  A
N3164     Co3182   2.108       .  S
H3165      C3188   1.082       .  S
H3166      C3183   1.080       .  S
N3168     Co3182   2.030   1_554  S
N3169      N3181   1.318       .  A
N3169      N3185   1.320       .  A
N3169     Co3178   2.096       .  S
C3171      H3175   1.081       .  S
C3171      C3190   1.499   1_556  S
N3172      C3183   1.337       .  A
N3172     Co3182   2.060       .  S
C3176      N3192   1.357       .  A
C3176      C3188   1.450       .  S
C3176      C3193   1.461       .  S
Co3178    Cl3189   2.471       .  S
N3179      C3190   1.332   1_655  A
C3180      C3265   1.489       .  S
Co3182    Cl3189   2.398       .  S
C3193      C3194   1.403       .  A
C3193      C3198   1.403       .  A
C3194      C3195   1.401       .  A
C3194      H3203   1.083       .  S
C3195      C3196   1.405       .  A
C3195      H3204   1.084       .  S
C3196      C3202   1.403       .  A
C3196      C3197   1.411       .  A
C3197      C3199   1.397       .  A
C3197      C3198   1.394       .  A
C3198      H3205   1.086       .  S
C3199      C3200   1.390       .  A
C3199      H3206   1.084       .  S
C3200      C3201   1.410       .  A
C3200      H3207   1.078       .  S
C3201      C3202   1.414       .  A
C3202      H3208   1.085       .  S
C3209      C3210   1.414       .  A
C3209      C3214   1.410       .  A
C3210      C3211   1.385       .  A
C3210      H3219   1.083       .  S
C3211      C3212   1.391       .  A
C3211      H3220   1.084       .  S
C3212      C3218   1.399       .  A
C3212      C3213   1.417       .  A
C3213      C3214   1.411       .  A
C3214      H3221   1.081       .  S
C3215      C3216   1.404       .  A
C3215      H3222   1.083       .  S
C3216      H3223   1.083       .  S
C3217      C3218   1.398       .  A
C3218      H3224   1.085       .  S
C3225      C3226   1.399       .  A
C3225      C3230   1.407       .  A
C3226      C3227   1.399       .  A
C3227      C3228   1.406       .  A
C3227      H3236   1.084       .  S
C3228      C3234   1.393       .  A
C3228      C3229   1.408       .  A
C3229      C3231   1.402       .  A
C3229      C3230   1.392       .  A
C3230      H3237   1.085       .  S
C3231      C3232   1.397       .  A
C3231      H3238   1.079       .  S
C3232      C3233   1.400       .  A
C3232      H3239   1.079       .  S
C3233      C3234   1.414       .  A
C3234      H3240   1.085       .  S
C3241      C3242   1.401   1_455  A
C3241      C3246   1.423   1_455  A
C3242      C3243   1.394       .  A
C3243      C3244   1.407       .  A
C3243      H3252   1.084       .  S
C3244      C3250   1.386       .  A
C3244      C3245   1.403       .  A
C3245      C3247   1.411       .  A
C3245      C3246   1.411       .  A
C3246      H3253   1.085   1_655  S
C3247      C3248   1.413       .  A
C3247      H3254   1.083       .  S
C3248      C3249   1.409       .  A
C3248      H3255   1.082       .  S
C3249      C3250   1.426       .  A
C3250      H3256   1.079       .  S
C3257      C3258   1.419       .  A
C3257      C3262   1.408       .  A
C3258      C3259   1.377       .  A
C3258      H3267   1.084       .  S
C3259      C3260   1.385       .  A
C3259      H3268   1.085       .  S
C3260      C3266   1.396       .  A
C3260      C3261   1.419       .  A
C3261      C3263   1.403       .  A
C3261      C3262   1.420       .  A
C3262      H3269   1.083       .  S
C3263      C3264   1.407       .  A
C3263      H3270   1.083       .  S
C3264      C3265   1.416       .  A
C3265      C3266   1.395       .  A
C3273      C3274   1.401       .  A
C3273      C3278   1.402       .  A
C3274      C3275   1.397       .  A
C3274      H3283   1.081   1_655  S
C3275      C3276   1.403       .  A
C3275      H3284   1.082       .  S
C3276      C3282   1.394       .  A
C3276      C3277   1.412       .  A
C3277      C3279   1.398       .  A
C3277      C3278   1.395       .  A
C3279      C3280   1.392       .  A
C3279      H3286   1.084       .  S
C3280      C3281   1.411       .  A
C3280      H3287   1.083       .  S
C3281      C3282   1.408       .  A
C3282      H3288   1.082       .  S
C3289      C3290   1.412       .  A
C3289      C3294   1.405       .  A
C3290      C3291   1.383       .  A
C3290      H3299   1.084       .  S
C3291      C3292   1.391       .  A
C3291      H3300   1.084       .  S
C3292      C3298   1.391       .  A
C3292      C3293   1.416       .  A
C3293      C3295   1.401       .  A
C3293      C3294   1.402       .  A
C3294      H3301   1.080       .  S
C3295      C3296   1.396       .  A
C3295      H3302   1.084       .  S
C3296      C3297   1.409       .  A
C3296      H3303   1.082       .  S
C3297      C3298   1.395       .  A
C3305      C3306   1.416       .  A
C3305      C3310   1.417       .  A
C3306      C3307   1.378       .  A
C3306      H3315   1.073       .  S
C3307      C3308   1.385       .  A
C3307      H3316   1.085       .  S
C3308      C3314   1.387       .  A
C3308      C3309   1.411       .  A
C3309      C3311   1.407       .  A
C3309      C3310   1.411       .  A
C3310      H3317   1.084       .  S
C3311      H3318   1.083       .  S
C3313      C3314   1.392       .  A
