geometry optimzed in LAMMPS
_audit_creation_date              2020-12-01 
_audit_creation_method            'lammps2cif' 
_symmetry_space_group_name_H-M    'P1' 
_symmetry_Int_Tables_number       1 
_symmetry_cell_setting            triclinic 
loop_ 
_symmetry_equiv_pos_as_xyz 
  x,y,z 
_cell_length_a                    36.67169061 
_cell_length_b                    39.35994339511009 
_cell_length_c                    36.42588325078343 
_cell_angle_alpha                 90.07992000374324 
_cell_angle_beta                  90.08757677064257 
_cell_angle_gamma                 90.04671959831893 
loop_ 
_atom_site_label 
_atom_site_type_symbol 
_atom_site_fract_x 
_atom_site_fract_y 
_atom_site_fract_z 
_atom_site_charge 
C1          C  0.42233436  0.42447377  0.08019607     0.42000
N2          N  0.45596029  0.46735581  0.06631423     0.00800
C3          C  0.45387500  0.05818979  0.40329616    -0.07000
H4          H  0.47604936  0.42731708  0.38743670     0.06300
C5          C  0.09236498  0.44006465  0.46332331    -0.07400
Co6        Co  0.43246297  0.99967622  0.49586718     0.74200
N7          N  0.46387540  0.46017414  0.43332529    -0.26600
Co8        Co  0.00291542  0.49870411  0.43281703     0.74100
C9          C  0.08102531  0.42079921  0.43072515     0.42100
N10         N  0.06353638  0.47081406  0.04730765     0.00500
N11         N  0.04459371  0.46301944  0.43895275     0.00600
N12         N  0.40855744  0.05735775  0.44527447    -0.47400
H13         H  0.38794415  0.43093537  0.02754200     0.06300
N14         N  0.43719774  0.46054285  0.45753650     0.00900
N15         N  0.04187105  0.03733565  0.43378793     0.00600
C16         C  0.07568772  0.07978785  0.41930247     0.42200
N17         N  0.03680273  0.47119657  0.07147459    -0.26000
C18         C  0.40350899  0.06303679  0.03810405    -0.06900
N19         N  0.45055981  0.44389369  0.09181979    -0.47100
N20         N  0.04720946  0.06056922  0.40811485    -0.47300
C21         C  0.41385972  0.08168358  0.07141711     0.42000
N22         N  0.43395330  0.03457332  0.45293604     0.00800
N23         N  0.03365156  0.04522176  0.06625071    -0.26000
N24         N  0.43262700  0.46485386  0.03884336    -0.26500
N25         N  0.06050486  0.04470097  0.04217889     0.00500
H26         H  0.02083759  0.07878447  0.11128022     0.06400
H27         H  0.11071469  0.07349769  0.47150092     0.06400
N28         N  0.46069700  0.03431212  0.42873788    -0.26600
N29         N  0.06825933  0.46556206  0.46611405    -0.26200
N30         N  0.45250927  0.04158407  0.06154967     0.00800
C31         C  0.42571438  0.41696815  0.42375920     0.42200
C32         C  0.04347217  0.44747253  0.09706595    -0.07400
N33         N  0.06550173  0.03976719  0.46099431    -0.26200
H34         H  0.11514986  0.43622869  0.48166030     0.06400
N35         N  0.41370060  0.43544559  0.45256530    -0.47400
H36         H  0.02681863  0.44252516  0.12094616     0.06400
C37         C  0.07134336  0.08896479  0.07510752     0.42100
C38         C  0.41037944  0.43848181  0.04502931    -0.06900
Co39       Co  0.49464005  0.00642124  0.06729202     0.73800
N40         N  0.08885362  0.44808366  0.05512474    -0.47100
C41         C  0.41915230  0.07353269  0.41442794     0.42300
N42         N  0.44442958  0.06667662  0.08440734    -0.47100
Co43       Co  0.06526462  0.50524567  0.00418511     0.73900
C44         C  0.08798478  0.06593407  0.45439269    -0.07400
C45         C  0.45909418  0.43347366  0.41077704    -0.07000
N46         N  0.42889343  0.03881126  0.03438515    -0.26500
N47         N  0.05135112  0.43684485  0.41710900    -0.47300
H48         H  0.47053003  0.06325825  0.37945126     0.06400
C49         C  0.03806927  0.07233870  0.08824579    -0.07400
Cl50       Cl  0.99881398  0.00255962  0.00003918    -0.50400
C51         C  0.07809295  0.43215108  0.08601205     0.42100
H52         H  0.38033788  0.06610645  0.02010011     0.06300
N53         N  0.08374954  0.07010591  0.04675089    -0.47100
C54         C  0.15891051  0.17358579  0.32788994     0.86000
C55         C  0.20009047  0.16616249  0.33402077    -0.54200
C56         C  0.22313481  0.18659048  0.31442814     0.08900
C57         C  0.20190548  0.21191154  0.29044242     0.19900
C58         C  0.15451461  0.21198899  0.33610842    -0.55000
C59         C  0.17731726  0.23251465  0.31636855     0.09000
C60         C  0.15392863  0.17054547  0.28556101    -0.54500
C61         C  0.17648987  0.19092696  0.26563865     0.09600
H62         H  0.20972854  0.14647811  0.35242748     0.14100
H63         H  0.21940335  0.22742548  0.27513785    -0.00200
H64         H  0.13508050  0.22166270  0.35594831     0.14400
H65         H  0.13506142  0.15367654  0.27199906     0.14200
C66         C  0.16698869  0.32913519  0.33908800     0.86000
C67         C  0.16272654  0.33806113  0.29769716    -0.54200
C68         C  0.18301554  0.31819614  0.27459517     0.08900
C69         C  0.20595457  0.29216393  0.29591290     0.19900
C70         C  0.15864946  0.29072054  0.34171322    -0.55000
C71         C  0.17928804  0.27087305  0.31901585     0.09000
C72         C  0.20877407  0.33220567  0.34563852    -0.54500
C73         C  0.22956777  0.31256189  0.32286323     0.09600
H74         H  0.14560489  0.35854438  0.28783482     0.14100
H75         H  0.22201277  0.27715564  0.27847946    -0.00200
H76         H  0.13828481  0.28049161  0.36022676     0.14400
H77         H  0.22082886  0.34930579  0.36549963     0.14200
C78         C  0.16942959  0.33911539  0.17031727     0.86000
C79         C  0.21140473  0.34277887  0.16523672    -0.54200
C80         C  0.23161016  0.32053961  0.18543269     0.08900
C81         C  0.20730841  0.29728241  0.20887632     0.19900
C82         C  0.16110238  0.30132190  0.16207449    -0.55000
C83         C  0.18109607  0.27888904  0.18233294     0.09000
C84         C  0.16403914  0.34310663  0.21236491    -0.54500
C85         C  0.18377258  0.32071613  0.23305211     0.09600
H86         H  0.22440248  0.36190505  0.14856343     0.14100
H87         H  0.22291098  0.28036446  0.22457514    -0.00200
H88         H  0.14110482  0.29339567  0.14181985     0.14400
H89         H  0.14608974  0.36197252  0.22433872     0.14200
C90         C  0.16104062  0.18331079  0.15941032     0.86000
C91         C  0.15509136  0.17516045  0.20067445    -0.54200
C92         C  0.17682854  0.19332969  0.22414630     0.08900
C93         C  0.20266750  0.21714744  0.20333258     0.19900
C94         C  0.15656456  0.22236943  0.15643300    -0.55000
C95         C  0.17877525  0.24051077  0.17962385     0.09000
C96         C  0.20245808  0.17679624  0.15392597    -0.54500
C97         C  0.22457748  0.19481181  0.17691589     0.09600
H98         H  0.13560354  0.15639745  0.21008016     0.14100
H99         H  0.21978353  0.23070876  0.22118269    -0.00200
H100        H  0.13768489  0.23420219  0.13741470     0.14400
H101        H  0.21346691  0.15851297  0.13483920     0.14200
C102        C  0.32704955  0.16691259  0.33004484     0.86000
C103        C  0.33169572  0.16262610  0.28792648    -0.54200
C104        C  0.31189563  0.18498898  0.26733712     0.08900
C105        C  0.28865068  0.20851660  0.29158574     0.19900
C106        C  0.33540595  0.20482078  0.33787747    -0.55000
C107        C  0.31504079  0.22714196  0.31776501     0.09000
C108        C  0.28508745  0.16323210  0.33569407    -0.54500
C109        C  0.26455741  0.18527340  0.31532543     0.09600
H110        H  0.34895370  0.14335557  0.27572424     0.14100
H111        H  0.27303931  0.22534149  0.27578900    -0.00200
H112        H  0.35563558  0.21290737  0.35782137     0.14400
H113        H  0.27259515  0.14412549  0.35289973     0.14200
C114        C  0.32791376  0.17535185  0.16140258     0.86000
C115        C  0.28614960  0.17268269  0.15503514    -0.54200
C116        C  0.26572024  0.19286049  0.17742185     0.08900
C117        C  0.28953543  0.21322528  0.20424344     0.19900
C118        C  0.33671110  0.21376964  0.15826707    -0.55000
C119        C  0.31631243  0.23410732  0.18082366     0.09000
C120        C  0.33220285  0.16686716  0.20283265    -0.54500
C121        C  0.31227194  0.18715900  0.22576990     0.09600
H122        H  0.27364478  0.15535506  0.13576002     0.14100
H123        H  0.27367478  0.22841550  0.22170768    -0.00200
H124        H  0.35710260  0.22363231  0.13955364     0.14400
H125        H  0.34922183  0.14635911  0.21281404     0.14200
C126        C  0.33701022  0.33147555  0.17128146     0.86000
C127        C  0.34094937  0.29301849  0.16293778    -0.54200
C128        C  0.31841501  0.27258121  0.18312264     0.08900
C129        C  0.29423465  0.29338813  0.20931961     0.19900
C130        C  0.29582465  0.33925223  0.16594734    -0.55000
C131        C  0.27293865  0.31885462  0.18573309     0.09000
C132        C  0.34247480  0.33460897  0.21357593    -0.54500
C133        C  0.31986224  0.31438499  0.23383749     0.09600
H134        H  0.35998551  0.28321627  0.14277834     0.14100
H135        H  0.27668750  0.27806714  0.22477585    -0.00200
H136        H  0.28605524  0.35931674  0.14812418     0.14400
H137        H  0.36132104  0.35195231  0.22661139     0.14200
C138        C  0.33445403  0.32314616  0.34004361     0.86000
C139        C  0.29293359  0.32945331  0.34555824    -0.54200
C140        C  0.27087125  0.31112998  0.32284889     0.08900
C141        C  0.29300284  0.28880465  0.29643363     0.19900
C142        C  0.33916620  0.28407984  0.34330837    -0.55000
C143        C  0.31706320  0.26563588  0.32026805     0.09000
C144        C  0.34043216  0.33102698  0.29874933    -0.54500
C145        C  0.31890457  0.31258374  0.27540023     0.09600
H146        H  0.28163919  0.34770312  0.36449020     0.14100
H147        H  0.27593812  0.27504837  0.27869666    -0.00200
H148        H  0.35815449  0.27245735  0.36236972     0.14400
H149        H  0.36004133  0.34962852  0.28919126     0.14200
C150        C  0.12037392  0.12747262  0.41215203    -0.21800
C151        C  0.09384837  0.10603932  0.39670450    -0.09800
C152        C  0.08586828  0.10910559  0.35914575     0.29000
C153        C  0.10563894  0.13150614  0.33716376    -0.21800
C154        C  0.13418543  0.15141717  0.35187421    -0.09900
C155        C  0.13999564  0.15018618  0.39018521     0.29000
F156        F  0.16542520  0.17038524  0.40633235    -0.20400
H157        H  0.12632451  0.12643954  0.44124465     0.17400
H158        H  0.09792869  0.13259840  0.30869809     0.17400
F159        F  0.05970658  0.08965493  0.34311799    -0.20400
C160        C  0.15951486  0.38100541  0.11734572    -0.21800
C161        C  0.14547738  0.36281522  0.14747906    -0.09800
C162        C  0.10780178  0.36562324  0.15497429     0.29000
C163        C  0.08591640  0.38817011  0.13503505    -0.21800
C164        C  0.10072242  0.40744396  0.10631854    -0.09900
C165        C  0.13761976  0.40304788  0.09718465     0.29000
F166        F  0.15298195  0.42031422  0.06890816    -0.20400
H167        H  0.18722080  0.37804135  0.10814143     0.17400
H168        H  0.05730212  0.39029616  0.14192700     0.17400
F169        F  0.09204533  0.34654170  0.18162240    -0.20400
C170        C  0.40793240  0.12261573  0.12364774    -0.21800
C171        C  0.39298059  0.10806928  0.09173428    -0.09800
C172        C  0.35797172  0.11846154  0.08058426     0.29000
C173        C  0.33773396  0.14089373  0.10221767    -0.21800
C174        C  0.35136095  0.15330373  0.13592500    -0.09900
C175        C  0.38778585  0.14541775  0.14508650     0.29000
F176        F  0.40395330  0.15938048  0.17506000    -0.20400
H177        H  0.43531292  0.11611285  0.13231346     0.17400
H178        H  0.31147427  0.14861225  0.09177607     0.17400
F179        F  0.34269411  0.10692584  0.04903723    -0.20400
C180        C  0.14899031  0.14789037  0.10119295    -0.21800
C181        C  0.13578597  0.16323232  0.13359130    -0.09800
C182        C  0.09856716  0.15857612  0.14213918     0.29000
C183        C  0.07731135  0.13517915  0.12241715    -0.21800
C184        C  0.09216410  0.11692477  0.09283801    -0.09900
C185        C  0.12774395  0.12483904  0.08132214     0.29000
F186        F  0.14269563  0.10958558  0.05147720    -0.20400
H187        H  0.17588308  0.15328575  0.09075441     0.17400
H188        H  0.04940994  0.13090525  0.13087813     0.17400
F189        F  0.08295406  0.17575882  0.17035342    -0.20400
C190        C  0.34650932  0.36035521  0.39694522    -0.21800
C191        C  0.35981682  0.34354732  0.36547775    -0.09800
C192        C  0.39730723  0.34706575  0.35736585     0.29000
C193        C  0.41901188  0.37037831  0.37679800    -0.21800
C194        C  0.40425664  0.38965988  0.40566738    -0.09900
C195        C  0.36812692  0.38328275  0.41646630     0.29000
F196        F  0.35297059  0.39995851  0.44529756    -0.20400
H197        H  0.31930446  0.35617520  0.40712086     0.17400
H198        H  0.44721877  0.37366047  0.36882917     0.17400
F199        F  0.41276384  0.32876859  0.32988126    -0.20400
C200        C  0.33873382  0.12824094  0.38552275    -0.21800
C201        C  0.35137587  0.14320600  0.35279077    -0.09800
C202        C  0.38816524  0.13752651  0.34288581     0.29000
C203        C  0.41000887  0.11499775  0.36293813    -0.21800
C204        C  0.39644595  0.09861929  0.39426560    -0.09900
C205        C  0.36078718  0.10624962  0.40591159     0.29000
F206        F  0.34690102  0.09241025  0.43701422    -0.20400
H207        H  0.31196478  0.13382991  0.39621234     0.17400
H208        H  0.43770702  0.11057980  0.35391548     0.17400
F209        F  0.40328760  0.15375142  0.31378726    -0.20400
C210        C  0.08650181  0.38058541  0.37787009    -0.21800
C211        C  0.10098436  0.39355488  0.41077192    -0.09800
C212        C  0.13508418  0.38139387  0.42268988     0.29000
C213        C  0.15568987  0.35996161  0.40014904    -0.21800
C214        C  0.14306833  0.35014351  0.36509152    -0.09900
C215        C  0.10685310  0.35861747  0.35566496     0.28600
F216        F  0.09108358  0.34610816  0.32474657    -0.20400
H217        H  0.05951594  0.38800151  0.36881218     0.17400
H218        H  0.18155451  0.35109645  0.41062138     0.17400
F219        F  0.14904923  0.39028608  0.45581503    -0.20400
C220        C  0.39344699  0.36949558  0.16076630    -0.21800
C221        C  0.36176872  0.35347770  0.14701942    -0.09800
C222        C  0.35350590  0.35784904  0.10942882     0.29000
C223        C  0.37381253  0.38022153  0.08773839    -0.21800
C224        C  0.40356606  0.39815566  0.10244815    -0.09900
C225        C  0.41402216  0.39154472  0.13888879     0.29000
F226        F  0.44380697  0.40676451  0.15378937    -0.20400
H227        H  0.40304543  0.36507361  0.18833013     0.17400
H228        H  0.36573808  0.38374134  0.05942367     0.17400
F229        F  0.32509371  0.34114725  0.09367697    -0.20400
C230        C  0.42233482  0.42447298  0.58019579     0.42000
N231        N  0.45596010  0.46735575  0.56631477     0.00800
C232        C  0.45387444  0.05819098  0.90329752    -0.07000
H233        H  0.47605025  0.42731636  0.88743655     0.06300
C234        C  0.09236498  0.44006439  0.96332441    -0.07400
Co235      Co  0.43246229  0.99967699  0.99586813     0.74200
N236        N  0.46387583  0.46017352  0.93332486    -0.26600
Co237      Co  0.00291576  0.49870413  0.93281767     0.74100
C238        C  0.08102528  0.42079883  0.93072637     0.42100
N239        N  0.06353660  0.47081399  0.54730695     0.00500
N240        N  0.04459388  0.46301929  0.93895364     0.00600
N241        N  0.40855682  0.05735907  0.94527589    -0.47400
H242        H  0.38794464  0.43093502  0.52754183     0.06300
N243        N  0.43719805  0.46054213  0.95753599     0.00900
N244        N  0.04187009  0.03733638  0.93378700     0.00600
C245        C  0.07568527  0.07979012  0.91930301     0.42200
N246        N  0.03680302  0.47119647  0.57147401    -0.26000
C247        C  0.40350906  0.06303630  0.53810255    -0.06900
N248        N  0.45056001  0.44389301  0.59181989    -0.47100
N249        N  0.04720771  0.06057090  0.90811467    -0.47300
C250        C  0.41385955  0.08168327  0.57141561     0.42000
N251        N  0.43395271  0.03457450  0.95293740     0.00800
N252        N  0.03365201  0.04522189  0.56625138    -0.26000
N253        N  0.43262686  0.46485402  0.53884396    -0.26500
N254        N  0.06050549  0.04470094  0.54217983     0.00500
H255        H  0.02083743  0.07878471  0.61128045     0.06400
H256        H  0.11071213  0.07349957  0.97150153     0.06400
N257        N  0.46069629  0.03431332  0.92873925    -0.26600
N258        N  0.06825952  0.46556195  0.96611501    -0.26200
N259        N  0.45250962  0.04158414  0.56154817     0.00800
C260        C  0.42571523  0.41696722  0.92375886     0.42200
C261        C  0.04347283  0.44747270  0.59706557    -0.07400
N262        N  0.06550061  0.03976790  0.96099348    -0.26200
H263        H  0.11514994  0.43622837  0.98166148     0.06400
N264        N  0.41370117  0.43544471  0.95256484    -0.47400
H265        H  0.02681948  0.44252544  0.62094596     0.06400
C266        C  0.07134357  0.08896494  0.57510831     0.42100
C267        C  0.41037961  0.43848158  0.54502936    -0.06900
Co268      Co  0.49464049  0.00642150  0.56729109     0.73800
N269        N  0.08885414  0.44808391  0.55512422    -0.47100
C270        C  0.41915182  0.07353398  0.91442942     0.42300
N271        N  0.44442962  0.06667672  0.58440582    -0.47100
Co272      Co  0.06526444  0.50524566  0.50418436     0.73900
C273        C  0.08798275  0.06593560  0.95439275    -0.07400
C274        C  0.45909491  0.43347290  0.91077676    -0.07000
N275        N  0.42889382  0.03881098  0.53438377    -0.26500
N276        N  0.05135118  0.43684461  0.91711013    -0.47300
H277        H  0.47052941  0.06325931  0.87945273     0.06400
C278        C  0.03806941  0.07233889  0.58824633    -0.07400
Cl279      Cl  0.99881441  0.00255964  0.50004019    -0.50400
C280        C  0.07809376  0.43215149  0.58601176     0.42100
H281        H  0.38033790  0.06610562  0.52009871     0.06300
N282        N  0.08375018  0.07010597  0.54675191    -0.47100
C283        C  0.15890982  0.17358755  0.82789205     0.86000
C284        C  0.20008976  0.16616356  0.83402249    -0.54200
C285        C  0.22313427  0.18659112  0.81442950     0.08900
C286        C  0.20190507  0.21191228  0.79044380     0.19900
C287        C  0.15451471  0.21199078  0.83611025    -0.55000
C288        C  0.17731739  0.23251593  0.81636988     0.09000
C289        C  0.15392766  0.17054678  0.78556319    -0.54500
C290        C  0.17648903  0.19092785  0.76564041     0.09600
H291        H  0.20972779  0.14647901  0.85242907     0.14100
H292        H  0.21940318  0.22742608  0.77513875    -0.00200
H293        H  0.13508094  0.22166494  0.85595023     0.14400
H294        H  0.13506060  0.15367723  0.77200175     0.14200
C295        C  0.16698966  0.32913660  0.83908810     0.86000
C296        C  0.16272744  0.33806225  0.79769717    -0.54200
C297        C  0.18301622  0.31819695  0.77459527     0.08900
C298        C  0.20595498  0.29216473  0.79591318     0.19900
C299        C  0.15865015  0.29072210  0.84171373    -0.55000
C300        C  0.17928846  0.27087428  0.81901654     0.09000
C301        C  0.20877512  0.33220682  0.84563845    -0.54500
C302        C  0.22956854  0.31256272  0.82286311     0.09600
H303        H  0.14560600  0.35854564  0.78783466     0.14100
H304        H  0.22201304  0.27715597  0.77847967    -0.00200
H305        H  0.13828552  0.28049347  0.86022750     0.14400
H306        H  0.22083009  0.34930684  0.86549955     0.14200
C307        C  0.16943051  0.33911560  0.67031716     0.86000
C308        C  0.21140569  0.34277849  0.66523636    -0.54200
C309        C  0.23161092  0.32053916  0.68543241     0.08900
C310        C  0.20730893  0.29728254  0.70887651     0.19900
C311        C  0.16110280  0.30132208  0.66207488    -0.55000
C312        C  0.18109627  0.27888916  0.68233353     0.09000
C313        C  0.16404026  0.34310726  0.71236479    -0.54500
C314        C  0.18377344  0.32071673  0.73305218     0.09600
H315        H  0.22440371  0.36190423  0.64856267     0.14100
H316        H  0.22291152  0.28036433  0.72457561    -0.00200
H317        H  0.14110501  0.29339585  0.64182042     0.14400
H318        H  0.14609104  0.36197334  0.72433844     0.14200
C319        C  0.16103934  0.18331091  0.65941223     0.86000
C320        C  0.15509021  0.17516093  0.70067648    -0.54200
C321        C  0.17682773  0.19333014  0.72414801     0.08900
C322        C  0.20266694  0.21714736  0.70333381     0.19900
C323        C  0.15656384  0.22236956  0.65643450    -0.55000
C324        C  0.17877491  0.24051085  0.67962499     0.09000
C325        C  0.20245656  0.17679567  0.65392767    -0.54500
C326        C  0.22457642  0.19481118  0.67691712     0.09600
H327        H  0.13560240  0.15639816  0.71008259     0.14100
H328        H  0.21978361  0.23070889  0.72118393    -0.00200
H329        H  0.13768429  0.23420237  0.63741617     0.14400
H330        H  0.21346480  0.15851201  0.63484101     0.14200
C331        C  0.32704906  0.16691244  0.83004496     0.86000
C332        C  0.33169453  0.16262528  0.78792664    -0.54200
C333        C  0.31189464  0.18498814  0.76733724     0.08900
C334        C  0.28865016  0.20851622  0.79158585     0.19900
C335        C  0.33540589  0.20482061  0.83787699    -0.55000
C336        C  0.31504065  0.22714172  0.81776458     0.09000
C337        C  0.28508705  0.16323227  0.83569491    -0.54500
C338        C  0.26455689  0.18527348  0.81532618     0.09600
H339        H  0.34895168  0.14335418  0.77572431     0.14100
H340        H  0.27303860  0.22534144  0.77578877    -0.00200
H341        H  0.35563580  0.21290726  0.85782056     0.14400
H342        H  0.27259507  0.14412610  0.85290133     0.14200
C343        C  0.32791223  0.17534972  0.66140271     0.86000
C344        C  0.28614795  0.17268110  0.65503564    -0.54200
C345        C  0.26571912  0.19285938  0.67742240     0.08900
C346        C  0.28953486  0.21322405  0.70424344     0.19900
C347        C  0.33671016  0.21376738  0.65826678    -0.55000
C348        C  0.31631199  0.23410555  0.68082331     0.09000
C349        C  0.33220148  0.16686535  0.70283286    -0.54500
C350        C  0.31227095  0.18715769  0.72577002     0.09600
H351        H  0.27364263  0.15535349  0.63576087     0.14100
H352        H  0.27367435  0.22841490  0.72170794    -0.00200
H353        H  0.35710165  0.22362961  0.63955316     0.14400
H354        H  0.34922028  0.14635725  0.71281432     0.14200
C355        C  0.33701117  0.33147345  0.67128015     0.86000
C356        C  0.34094977  0.29301628  0.66293683    -0.54200
C357        C  0.31841516  0.27257944  0.68312195     0.08900
C358        C  0.29423519  0.29338691  0.70931880     0.19900
C359        C  0.29582565  0.33925058  0.66594609    -0.55000
C360        C  0.27293942  0.31885347  0.68573222     0.09000
C361        C  0.34247586  0.33460717  0.71357458    -0.54500
C362        C  0.31986303  0.31438368  0.73383642     0.09600
H363        H  0.35998573  0.28321365  0.64277746     0.14100
H364        H  0.27668766  0.27806603  0.72477549    -0.00200
H365        H  0.28605646  0.35931508  0.64812290     0.14400
H366        H  0.36132230  0.35195048  0.72660983     0.14200
C367        C  0.33445503  0.32314587  0.84004238     0.86000
C368        C  0.29293475  0.32945365  0.84555716    -0.54200
C369        C  0.27087200  0.31113036  0.82284824     0.08900
C370        C  0.29300316  0.28880453  0.79643300     0.19900
C371        C  0.33916668  0.28407953  0.84330745    -0.55000
C372        C  0.31706334  0.26563564  0.82026739     0.09000
C373        C  0.34043309  0.33102628  0.79874801    -0.54500
C374        C  0.31890519  0.31258306  0.77539919     0.09600
H375        H  0.28164077  0.34770387  0.86448895     0.14100
H376        H  0.27593798  0.27504799  0.77869596    -0.00200
H377        H  0.35815495  0.27245697  0.86236873     0.14400
H378        H  0.36004245  0.34962747  0.78918965     0.14200
C379        C  0.12037377  0.12747310  0.91215344    -0.21800
C380        C  0.09384533  0.10604278  0.89670607    -0.09800
C381        C  0.08586219  0.10911296  0.85914832     0.29000
C382        C  0.10563369  0.13151322  0.83716666    -0.21800
C383        C  0.13418393  0.15141995  0.85187651    -0.09900
C384        C  0.13999616  0.15018647  0.89018706     0.29000
F385        F  0.16542839  0.17038268  0.90633408    -0.20400
H386        H  0.12632639  0.12643763  0.94124555     0.17400
H387        H  0.09792090  0.13260925  0.80870179     0.17400
F388        F  0.05969635  0.08966668  0.84312122    -0.20400
C389        C  0.15951604  0.38100637  0.61734600    -0.21800
C390        C  0.14547841  0.36281561  0.64747890    -0.09800
C391        C  0.10780276  0.36562352  0.65497393     0.29000
C392        C  0.08591738  0.38817040  0.63503467    -0.21800
C393        C  0.10072344  0.40744457  0.60631843    -0.09900
C394        C  0.13762095  0.40304895  0.59718498     0.29000
F395        F  0.15298330  0.42031587  0.56890900    -0.20400
H396        H  0.18722214  0.37804273  0.60814197     0.17400
H397        H  0.05730299  0.39029620  0.64192639     0.17400
F398        F  0.09204625  0.34654183  0.68162188    -0.20400
C399        C  0.40793148  0.12261494  0.62364662    -0.21800
C400        C  0.39297965  0.10806812  0.59173336    -0.09800
C401        C  0.35796998  0.11845896  0.58058433     0.29000
C402        C  0.33773175  0.14089040  0.60221829    -0.21800
C403        C  0.35135913  0.15330118  0.63592516    -0.09900
C404        C  0.38778445  0.14541614  0.64508596     0.29000
F405        F  0.40395191  0.15937902  0.67505937    -0.20400
H406        H  0.43531244  0.11611299  0.63231173     0.17400
H407        H  0.31147151  0.14860786  0.59177726     0.17400
F408        F  0.34269206  0.10692261  0.54903771    -0.20400
C409        C  0.14898870  0.14789270  0.60119355    -0.21800
C410        C  0.13578466  0.16323265  0.63359315    -0.09800
C411        C  0.09856630  0.15857487  0.64214183     0.29000
C412        C  0.07731095  0.13517799  0.62241930    -0.21800
C413        C  0.09216368  0.11692520  0.59283899    -0.09900
C414        C  0.12774279  0.12484130  0.58132232     0.29000
F415        F  0.14269412  0.10958971  0.55147608    -0.20400
H416        H  0.17588094  0.15328969  0.59075456     0.17400
H417        H  0.04940998  0.13090284  0.63088089     0.17400
F418        F  0.08295312  0.17575603  0.67035713    -0.20400
C419        C  0.34651077  0.36035365  0.89694474    -0.21800
C420        C  0.35981801  0.34354685  0.86547648    -0.09800
C421        C  0.39730822  0.34706601  0.85736408     0.29000
C422        C  0.41901277  0.37037837  0.87679659    -0.21800
C423        C  0.40425768  0.38965899  0.90566679    -0.09900
C424        C  0.36812827  0.38328103  0.91646615     0.29000
F425        F  0.35297216  0.39995578  0.94529820    -0.20400
H426        H  0.31930614  0.35617283  0.90712071     0.17400
H427        H  0.44721950  0.37366114  0.86882737     0.17400
F428        F  0.41276478  0.32876972  0.82987879    -0.20400
C429        C  0.33873478  0.12824465  0.88552538    -0.21800
C430        C  0.35137548  0.14320614  0.85279099    -0.09800
C431        C  0.38816391  0.13752414  0.84288418     0.29000
C432        C  0.41000742  0.11499579  0.86293699    -0.21800
C433        C  0.39644562  0.09862049  0.89426683    -0.09900
C434        C  0.36078822  0.10625381  0.90591480     0.29000
F435        F  0.34690365  0.09241808  0.93702003    -0.20400
H436        H  0.31196670  0.13383611  0.89621609     0.17400
H437        H  0.43770466  0.11057570  0.85391273     0.17400
F438        F  0.40328571  0.15374639  0.81378362    -0.20400
C439        C  0.08650245  0.38058612  0.87787054    -0.21800
C440        C  0.10098455  0.39355484  0.91077289    -0.09800
C441        C  0.13508428  0.38139361  0.92269092     0.29000
C442        C  0.15569042  0.35996213  0.90014955    -0.21800
C443        C  0.14306930  0.35014494  0.86509159    -0.09900
C444        C  0.10685408  0.35861889  0.85566498     0.28600
F445        F  0.09108479  0.34611011  0.82474622    -0.20400
H446        H  0.05951657  0.38800232  0.86881254     0.17400
H447        H  0.18155510  0.35109680  0.91062177     0.17400
F448        F  0.14904870  0.39028481  0.95581666    -0.20400
C449        C  0.39344862  0.36949263  0.66076482    -0.21800
C450        C  0.36177004  0.35347525  0.64701799    -0.09800
C451        C  0.35350710  0.35784704  0.60942748     0.29000
C452        C  0.37381359  0.38021990  0.58773730    -0.21800
C453        C  0.40356710  0.39815397  0.60244725    -0.09900
C454        C  0.41402365  0.39154217  0.63888758     0.29000
F455        F  0.44380871  0.40676155  0.65378816    -0.20400
H456        H  0.40304731  0.36507009  0.68832843     0.17400
H457        H  0.36573892  0.38374021  0.55942275     0.17400
F458        F  0.32509481  0.34114547  0.59367554    -0.20400
C459        C  0.42233321  0.92447313  0.08019377     0.42000
N460        N  0.45595895  0.96735571  0.06631366     0.00800
C461        C  0.45387274  0.55818898  0.40329675    -0.07000
H462        H  0.47605166  0.92731768  0.38743494     0.06300
C463        C  0.09236591  0.94006440  0.46332526    -0.07400
Co464      Co  0.43246242  0.49967618  0.49586894     0.74200
N465        N  0.46387693  0.96017418  0.43332378    -0.26600
Co466      Co  0.00291694  0.99870443  0.43281781     0.74100
C467        C  0.08102685  0.92079915  0.43072678     0.42100
N468        N  0.06353534  0.97081332  0.04730690     0.00500
N469        N  0.04459492  0.96301929  0.43895411     0.00600
N470        N  0.40855530  0.55735702  0.44527533    -0.47400
H471        H  0.38794339  0.93093583  0.02753956     0.06300
N472        N  0.43719872  0.96054283  0.45753452     0.00900
N473        N  0.04186952  0.53733575  0.43378600     0.00600
C474        C  0.07568680  0.57978749  0.41929984     0.42200
N475        N  0.03680156  0.97119571  0.07147359    -0.26000
C476        C  0.40350830  0.56303539  0.03810313    -0.06900
N477        N  0.45055845  0.94389284  0.09181829    -0.47100
N478        N  0.04720815  0.56056907  0.40811253    -0.47300
C479        C  0.41385883  0.58168263  0.07141588     0.42000
N480        N  0.43395187  0.53457321  0.45293741     0.00800
N481        N  0.03365196  0.54522251  0.06625045    -0.26000
N482        N  0.43262588  0.96485441  0.03884249    -0.26500
N483        N  0.06050514  0.54470181  0.04217848     0.00500
H484        H  0.02083729  0.57878556  0.11127934     0.06400
H485        H  0.11071401  0.57349718  0.47149808     0.06400
N486        N  0.46069530  0.53431206  0.42873911    -0.26600
N487        N  0.06826010  0.96556174  0.46611572    -0.26200
N488        N  0.45250932  0.54158394  0.06154861     0.00800
C489        C  0.42571586  0.91696866  0.42375626     0.42200
C490        C  0.04347078  0.94747173  0.09706510    -0.07400
N491        N  0.06550045  0.53976736  0.46099217    -0.26200
H492        H  0.11515048  0.93622841  0.48166251     0.06400
N493        N  0.41370158  0.93544583  0.45256242    -0.47400
H494        H  0.02681729  0.94252450  0.12094528     0.06400
C495        C  0.07134267  0.58896632  0.07510627     0.42100
C496        C  0.41037839  0.93848210  0.04502743    -0.06900
Co497      Co  0.49464085  0.50642189  0.06729121     0.73800
N498        N  0.08885271  0.94808311  0.05512433    -0.47100
C499        C  0.41914976  0.57353140  0.41442830     0.42300
N500        N  0.44442917  0.56667650  0.08440610    -0.47100
Co501      Co  0.06526429  0.00524546  0.00418494     0.73900
C502        C  0.08798381  0.56593384  0.45439010    -0.07400
C503        C  0.45909599  0.93347404  0.41077509    -0.07000
N504        N  0.42889334  0.53881042  0.03438436    -0.26500
N505        N  0.05135279  0.93684480  0.41711025    -0.47300
H506        H  0.47052727  0.56325692  0.37945157     0.06400
C507        C  0.03806913  0.57233980  0.08824500    -0.07400
Cl508      Cl  0.99881415  0.50255962  0.00004011    -0.50400
C509        C  0.07809178  0.93215063  0.08601158     0.42100
H510        H  0.38033690  0.56610422  0.02009949     0.06300
N511        N  0.08374928  0.57010730  0.04674989    -0.47100
C512        C  0.15890989  0.67358794  0.32788901     0.86000
C513        C  0.20008914  0.66616349  0.33401965    -0.54200
C514        C  0.22313430  0.68659075  0.31442741     0.08900
C515        C  0.20190164  0.71190969  0.29044457     0.19900
C516        C  0.15451470  0.71199060  0.33610820    -0.55000
C517        C  0.17731717  0.73251648  0.31636864     0.09000
C518        C  0.15392726  0.67054748  0.28556081    -0.54500
C519        C  0.17648834  0.69092815  0.26563768     0.09600
H520        H  0.20972787  0.64647995  0.35242483     0.14100
H521        H  0.21942519  0.72744644  0.27511779    -0.00200
H522        H  0.13508245  0.72166533  0.35594727     0.14400
H523        H  0.13506128  0.65367966  0.27199829     0.14200
C524        C  0.16699188  0.82913663  0.33908788     0.86000
C525        C  0.16272871  0.83806279  0.29769767    -0.54200
C526        C  0.18301654  0.81819792  0.27459475     0.08900
C527        C  0.20595304  0.79216784  0.29591563     0.19900
C528        C  0.15865187  0.79072264  0.34171368    -0.55000
C529        C  0.17928910  0.77087429  0.31901630     0.09000
C530        C  0.20877682  0.83220694  0.34563798    -0.54500
C531        C  0.22957036  0.81256322  0.32286264     0.09600
H532        H  0.14560813  0.85854498  0.28783469     0.14100
H533        H  0.22203221  0.77713739  0.27845704    -0.00200
H534        H  0.13828852  0.78049327  0.36022626     0.14400
H535        H  0.22083311  0.84930575  0.36549764     0.14200
C536        C  0.16943018  0.83911605  0.17031742     0.86000
C537        C  0.21140474  0.84277927  0.16523626    -0.54200
C538        C  0.23161057  0.82054009  0.18543153     0.08900
C539        C  0.20730541  0.79728611  0.20887284     0.19900
C540        C  0.16110216  0.80132324  0.16207430    -0.55000
C541        C  0.18109518  0.77888962  0.18233209     0.09000
C542        C  0.16403955  0.84310758  0.21236447    -0.54500
C543        C  0.18377271  0.82071746  0.23305218     0.09600
H544        H  0.22440390  0.86190374  0.14856409     0.14100
H545        H  0.22292977  0.78034300  0.22459387    -0.00200
H546        H  0.14110567  0.79339636  0.14182088     0.14400
H547        H  0.14609132  0.86197220  0.22433903     0.14200
C548        C  0.16103926  0.68331218  0.15941016     0.86000
C549        C  0.15508997  0.67516161  0.20067374    -0.54200
C550        C  0.17682708  0.69333029  0.22414587     0.08900
C551        C  0.20266349  0.71714547  0.20332827     0.19900
C552        C  0.15656337  0.72237031  0.15643255    -0.55000
C553        C  0.17877409  0.74051193  0.17962272     0.09000
C554        C  0.20245585  0.67679665  0.15392497    -0.54500
C555        C  0.22457630  0.69481152  0.17691420     0.09600
H556        H  0.13560337  0.65639978  0.21008073     0.14100
H557        H  0.21980312  0.73072667  0.22120361    -0.00200
H558        H  0.13768477  0.73420391  0.13741581     0.14400
H559        H  0.21346503  0.65851417  0.13483947     0.14200
C560        C  0.32704796  0.66691186  0.33004311     0.86000
C561        C  0.33169424  0.66262468  0.28792530    -0.54200
C562        C  0.31189492  0.68498745  0.26733526     0.08900
C563        C  0.28865326  0.70851297  0.29158720     0.19900
C564        C  0.33540569  0.70481937  0.33787569    -0.55000
C565        C  0.31504151  0.72714143  0.31776365     0.09000
C566        C  0.28508648  0.66323194  0.33569280    -0.54500
C567        C  0.26455629  0.68527308  0.31532452     0.09600
H568        H  0.34895051  0.64335498  0.27572239     0.14100
H569        H  0.27301972  0.72536284  0.27576859    -0.00200
H570        H  0.35563440  0.71290648  0.35781826     0.14400
H571        H  0.27259298  0.64412691  0.35289735     0.14200
C572        C  0.32791153  0.67535049  0.16140126     0.86000
C573        C  0.28614790  0.67268166  0.15503346    -0.54200
C574        C  0.26571845  0.69285945  0.17741989     0.08900
C575        C  0.28953726  0.71322154  0.20423867     0.19900
C576        C  0.33670982  0.71376758  0.15826532    -0.55000
C577        C  0.31631203  0.73410614  0.18082139     0.09000
C578        C  0.33220084  0.66686542  0.20283073    -0.54500
C579        C  0.31227087  0.68715721  0.22576854     0.09600
H580        H  0.27364180  0.65535548  0.13575943     0.14100
H581        H  0.27365615  0.72843419  0.22172684    -0.00200
H582        H  0.35710025  0.72363063  0.13955298     0.14400
H583        H  0.34921834  0.64635821  0.21281302     0.14200
C584        C  0.33700978  0.83147349  0.17127869     0.86000
C585        C  0.34094867  0.79301695  0.16293487    -0.54200
C586        C  0.31841488  0.77257949  0.18311982     0.08900
C587        C  0.29423822  0.79339014  0.20931449     0.19900
C588        C  0.29582492  0.83925098  0.16594491    -0.55000
C589        C  0.27293845  0.81885431  0.18573090     0.09000
C590        C  0.34247548  0.83460748  0.21357239    -0.54500
C591        C  0.31986355  0.81438420  0.23383512     0.09600
H592        H  0.35998308  0.78321370  0.14277650     0.14100
H593        H  0.27666569  0.77804630  0.22479378    -0.00200
H594        H  0.28605464  0.85931438  0.14812317     0.14400
H595        H  0.36132073  0.85194960  0.22660818     0.14200
C596        C  0.33445652  0.82314520  0.34004015     0.86000
C597        C  0.29293690  0.82945358  0.34555546    -0.54200
C598        C  0.27087330  0.81113068  0.32284734     0.08900
C599        C  0.29300752  0.78880682  0.29643489     0.19900
C600        C  0.33916824  0.78407930  0.34330567    -0.55000
C601        C  0.31706492  0.76563490  0.32026632     0.09000
C602        C  0.34043467  0.83102572  0.29874636    -0.54500
C603        C  0.31890670  0.81258316  0.27539727     0.09600
H604        H  0.28164212  0.84770309  0.36448561     0.14100
H605        H  0.27591900  0.77503039  0.27867289    -0.00200
H606        H  0.35815533  0.77245605  0.36236557     0.14400
H607        H  0.36004280  0.84962579  0.28918683     0.14200
C608        C  0.12037456  0.62747110  0.41215010    -0.21800
C609        C  0.09384721  0.60603971  0.39670251    -0.09800
C610        C  0.08586496  0.60910913  0.35914453     0.29000
C611        C  0.10563550  0.63151065  0.33716315    -0.21800
C612        C  0.13418385  0.65141894  0.35187363    -0.09900
C613        C  0.13999611  0.65018559  0.39018389     0.29000
F614        F  0.16542720  0.67038259  0.40633142    -0.20400
H615        H  0.12632682  0.62643588  0.44124241     0.17400
H616        H  0.09792290  0.63260565  0.30869804     0.17400
F617        F  0.05970100  0.58966096  0.34311683    -0.20400
C618        C  0.15951580  0.88101028  0.11734898    -0.21800
C619        C  0.14547738  0.86281671  0.14747913    -0.09800
C620        C  0.10780142  0.86562179  0.15497257     0.29000
C621        C  0.08591535  0.88816829  0.13503313    -0.21800
C622        C  0.10072182  0.90744482  0.10631895    -0.09900
C623        C  0.13762036  0.90305265  0.09718809     0.29000
F624        F  0.15298360  0.92032290  0.06891487    -0.20400
H625        H  0.18722264  0.87804969  0.10814604     0.17400
H626        H  0.05730026  0.89029189  0.14192296     0.17400
F627        F  0.09204475  0.84653804  0.18161861    -0.20400
C628        C  0.40793060  0.62261423  0.12364660    -0.21800
C629        C  0.39297916  0.60806783  0.09173298    -0.09800
C630        C  0.35797020  0.61845973  0.08058287     0.29000
C631        C  0.33773203  0.64089177  0.10221636    -0.21800
C632        C  0.35135905  0.65330170  0.13592339    -0.09900
C633        C  0.38778364  0.64541609  0.14508537     0.29000
F634        F  0.40395096  0.65937857  0.17505899    -0.20400
H635        H  0.43531118  0.61611148  0.13231251     0.17400
H636        H  0.31147228  0.64860991  0.09177437     0.17400
F637        F  0.34269281  0.60692396  0.04903567    -0.20400
C638        C  0.14898780  0.64789425  0.10119104    -0.21800
C639        C  0.13578383  0.66323378  0.13359057    -0.09800
C640        C  0.09856580  0.65857627  0.14213972     0.29000
C641        C  0.07731014  0.63517937  0.12241718    -0.21800
C642        C  0.09216265  0.61692669  0.09283666    -0.09900
C643        C  0.12774162  0.62484292  0.08131973     0.29000
F644        F  0.14269274  0.60959147  0.05147321    -0.20400
H645        H  0.17587993  0.65329109  0.09075157     0.17400
H646        H  0.04940923  0.63090410  0.13087898     0.17400
F647        F  0.08295275  0.67575720  0.17035517    -0.20400
C648        C  0.34651229  0.86035407  0.39694207    -0.21800
C649        C  0.35982004  0.84354695  0.36547456    -0.09800
C650        C  0.39730992  0.84706632  0.35736188     0.29000
C651        C  0.41901424  0.87037936  0.37679420    -0.21800
C652        C  0.40425869  0.88966045  0.40566387    -0.09900
C653        C  0.36812919  0.88328255  0.41646278     0.29000
F654        F  0.35297219  0.89995844  0.44529368    -0.20400
H655        H  0.31930784  0.85617318  0.40711864     0.17400
H656        H  0.44722107  0.87366229  0.36882522     0.17400
F657        F  0.41276695  0.82876997  0.32987699    -0.20400
C658        C  0.33873150  0.62823969  0.38552151    -0.21800
C659        C  0.35137416  0.64320426  0.35278976    -0.09800
C660        C  0.38816309  0.63752428  0.34288472     0.29000
C661        C  0.41000644  0.61499538  0.36293754    -0.21800
C662        C  0.39644330  0.59861745  0.39426525    -0.09900
C663        C  0.36078450  0.60624810  0.40591079     0.29000
F664        F  0.34689794  0.59240901  0.43701346    -0.20400
H665        H  0.31196252  0.63382895  0.39621133     0.17400
H666        H  0.43770470  0.61057705  0.35391505     0.17400
F667        F  0.40328598  0.65374850  0.31378611    -0.20400
C668        C  0.08650413  0.88058551  0.37787175    -0.21800
C669        C  0.10098667  0.89355543  0.41077336    -0.09800
C670        C  0.13508722  0.88139553  0.42269063     0.29000
C671        C  0.15569354  0.85996403  0.40014913    -0.21800
C672        C  0.14307139  0.85014552  0.36509225    -0.09900
C673        C  0.10685595  0.85861808  0.35566621     0.28600
F674        F  0.09108611  0.84610825  0.32474831    -0.20400
H675        H  0.05951773  0.88800076  0.36881436     0.17400
H676        H  0.18155870  0.85109990  0.41062129     0.17400
F677        F  0.14905240  0.89028793  0.45581576    -0.20400
C678        C  0.39344757  0.86949222  0.16076224    -0.21800
C679        C  0.36176874  0.85347577  0.14701567    -0.09800
C680        C  0.35350473  0.85784792  0.10942571     0.29000
C681        C  0.37381116  0.88022095  0.08773533    -0.21800
C682        C  0.40356533  0.89815428  0.10244494    -0.09900
C683        C  0.41402254  0.89154179  0.13888490     0.29000
F684        F  0.44380823  0.90676049  0.15378517    -0.20400
H685        H  0.40304724  0.86506923  0.18832554     0.17400
H686        H  0.36573594  0.88374192  0.05942089     0.17400
F687        F  0.32509204  0.84114696  0.09367392    -0.20400
C688        C  0.42233303  0.92447423  0.58019469     0.42000
N689        N  0.45595945  0.96735596  0.56631327     0.00800
C690        C  0.45387289  0.55818875  0.90329615    -0.07000
H691        H  0.47605058  0.92731878  0.88743546     0.06300
C692        C  0.09236564  0.94006518  0.96332349    -0.07400
Co693      Co  0.43246242  0.49967568  0.99586816     0.74200
N694        N  0.46387591  0.96017539  0.93332426    -0.26600
Co695      Co  0.00291632  0.99870479  0.93281667     0.74100
C696        C  0.08102664  0.92080002  0.93072496     0.42100
N697        N  0.06353550  0.97081327  0.54730824     0.00500
N698        N  0.04459451  0.96301988  0.93895247     0.00600
N699        N  0.40855545  0.55735670  0.94527475    -0.47400
H700        H  0.38794355  0.93093596  0.52754021     0.06300
N701        N  0.43719770  0.96054401  0.95753502     0.00900
N702        N  0.04186994  0.53733561  0.93378667     0.00600
C703        C  0.07568741  0.57978707  0.91930016     0.42200
N704        N  0.03680155  0.97119587  0.57147492    -0.26000
C705        C  0.40350917  0.56303626  0.53810391    -0.06900
N706        N  0.45055848  0.94389389  0.59181876    -0.47100
N707        N  0.04720868  0.56056872  0.90811302    -0.47300
C708        C  0.41385998  0.58168353  0.57141655     0.42000
N709        N  0.43395177  0.53457257  0.95293650     0.00800
N710        N  0.03365189  0.54522248  0.56624985    -0.26000
N711        N  0.43262652  0.96485417  0.53884213    -0.26500
N712        N  0.06050491  0.54470174  0.54217778     0.00500
H713        H  0.02083746  0.57878573  0.61127865     0.06400
H714        H  0.11071470  0.57349695  0.97149843     0.06400
N715        N  0.46069522  0.53431147  0.92873821    -0.26600
N716        N  0.06825972  0.96556236  0.96611415    -0.26200
N717        N  0.45250976  0.54158412  0.56154959     0.00800
C718        C  0.42571474  0.91696979  0.92375690     0.42200
C719        C  0.04347054  0.94747165  0.59706620    -0.07400
N720        N  0.06550088  0.53976728  0.96099281    -0.26200
H721        H  0.11515023  0.93622920  0.98166081     0.06400
N722        N  0.41370056  0.93544701  0.95256303    -0.47400
H723        H  0.02681679  0.94252431  0.62094637     0.06400
C724        C  0.07134262  0.58896641  0.57510531     0.42100
C725        C  0.41037862  0.93848228  0.54502775    -0.06900
Co726      Co  0.49464098  0.50642154  0.56729199     0.73800
N727        N  0.08885241  0.94808275  0.55512549    -0.47100
C728        C  0.41915008  0.57353135  0.91442795     0.42300
N729        N  0.44443003  0.56667695  0.58440691    -0.47100
Co730      Co  0.06526485  0.00524517  0.50418616     0.73900
C731        C  0.08798437  0.56593362  0.95439053    -0.07400
C732        C  0.45909486  0.93347523  0.91077560    -0.07000
N733        N  0.42889376  0.53881085  0.53438530    -0.26500
N734        N  0.05135247  0.93684558  0.91710852    -0.47300
H735        H  0.47052758  0.56325702  0.87945122     0.06400
C736        C  0.03806911  0.57233990  0.58824430    -0.07400
Cl737      Cl  0.99881398  0.50255946  0.50003956    -0.50400
C738        C  0.07809133  0.93215014  0.58601259     0.42100
H739        H  0.38033797  0.56610548  0.52010010     0.06300
N740        N  0.08374907  0.57010730  0.54674896    -0.47100
C741        C  0.15891048  0.67358673  0.82788819     0.86000
C742        C  0.20008969  0.66616267  0.83401909    -0.54200
C743        C  0.22313479  0.68659013  0.81442705     0.08900
C744        C  0.20190143  0.71190854  0.79044450     0.19900
C745        C  0.15451470  0.71198927  0.83610743    -0.55000
C746        C  0.17731702  0.73251551  0.81636818     0.09000
C747        C  0.15392799  0.67054623  0.78556005    -0.54500
C748        C  0.17648889  0.69092711  0.76563698     0.09600
H749        H  0.20972861  0.64647938  0.85242419     0.14100
H750        H  0.21942825  0.72744846  0.77511503    -0.00200
H751        H  0.13508241  0.72166382  0.85594627     0.14400
H752        H  0.13506231  0.65367849  0.77199730     0.14200
C753        C  0.16699093  0.82913551  0.83908791     0.86000
C754        C  0.16272802  0.83806181  0.79769781    -0.54200
C755        C  0.18301610  0.81819717  0.77459495     0.08900
C756        C  0.20595234  0.79216752  0.79591638     0.19900
C757        C  0.15865111  0.79072150  0.84171349    -0.55000
C758        C  0.17928867  0.77087329  0.81901624     0.09000
C759        C  0.20877569  0.83220614  0.84563848    -0.54500
C760        C  0.22956967  0.81256266  0.82286345     0.09600
H761        H  0.14560747  0.85854376  0.78783466     0.14100
H762        H  0.22203445  0.77713446  0.77845465    -0.00200
H763        H  0.13828772  0.78049184  0.86022567     0.14400
H764        H  0.22083184  0.84930494  0.86549800     0.14200
C765        C  0.16942952  0.83911506  0.67031774     0.86000
C766        C  0.21140396  0.84277890  0.66523669    -0.54200
C767        C  0.23161012  0.82053999  0.68543201     0.08900
C768        C  0.20730478  0.79728595  0.70887268     0.19900
C769        C  0.16110196  0.80132234  0.66207443    -0.55000
C770        C  0.18109518  0.77888883  0.68233207     0.09000
C771        C  0.16403878  0.84310653  0.71236471    -0.54500
C772        C  0.18377214  0.82071663  0.73305247     0.09600
H773        H  0.22440285  0.86190364  0.64856478     0.14100
H774        H  0.22293205  0.78033974  0.72459659    -0.00200
H775        H  0.14110574  0.79339525  0.64182110     0.14400
H776        H  0.14609060  0.86197088  0.72433936     0.14200
C777        C  0.16104048  0.68331149  0.65940934     0.86000
C778        C  0.15509097  0.67516060  0.70067277    -0.54200
C779        C  0.17682777  0.69332928  0.72414523     0.08900
C780        C  0.20266364  0.71714453  0.70332747     0.19900
C781        C  0.15656418  0.72236951  0.65643197    -0.55000
C782        C  0.17877453  0.74051125  0.67962237     0.09000
C783        C  0.20245717  0.67679640  0.65392427    -0.54500
C784        C  0.22457735  0.69481130  0.67691382     0.09600
H785        H  0.13560445  0.65639886  0.71007959     0.14100
H786        H  0.21980599  0.73072838  0.72120625    -0.00200
H787        H  0.13768568  0.73420309  0.63741537     0.14400
H788        H  0.21346686  0.65851442  0.63483874     0.14200
C789        C  0.32704850  0.66691242  0.83004344     0.86000
C790        C  0.33169531  0.66262553  0.78792569    -0.54200
C791        C  0.31189585  0.68498815  0.76733554     0.08900
C792        C  0.28865406  0.70851287  0.79158794     0.19900
C793        C  0.33540571  0.70481984  0.83787647    -0.55000
C794        C  0.31504157  0.72714186  0.81776443     0.09000
C795        C  0.28508710  0.66323192  0.83569274    -0.54500
C796        C  0.26455673  0.68527293  0.81532449     0.09600
H797        H  0.34895183  0.64335630  0.77572276     0.14100
H798        H  0.27301747  0.72536587  0.77576648    -0.00200
H799        H  0.35563394  0.71290707  0.85781918     0.14400
H800        H  0.27259366  0.64412678  0.85289688     0.14200
C801        C  0.32791301  0.67535208  0.66140152     0.86000
C802        C  0.28614952  0.67268256  0.65503353    -0.54200
C803        C  0.26571951  0.69285989  0.67741987     0.08900
C804        C  0.28953830  0.71322192  0.70423856     0.19900
C805        C  0.33671068  0.71376926  0.65826582    -0.55000
C806        C  0.31631257  0.73410747  0.68082195     0.09000
C807        C  0.33220239  0.66686684  0.70283090    -0.54500
C808        C  0.31227195  0.68715813  0.72576886     0.09600
H809        H  0.27364367  0.65535636  0.63575955     0.14100
H810        H  0.27365414  0.72843706  0.72172981    -0.00200
H811        H  0.35710094  0.72363277  0.63955382     0.14400
H812        H  0.34922017  0.64636002  0.71281324     0.14200
C813        C  0.33700915  0.83147519  0.67128059     0.86000
C814        C  0.34094869  0.79301880  0.66293640    -0.54200
C815        C  0.31841507  0.77258079  0.68312092     0.08900
C816        C  0.29423840  0.79339138  0.70931530     0.19900
C817        C  0.29582431  0.83925223  0.66594655    -0.55000
C818        C  0.27293794  0.81885506  0.68573204     0.09000
C819        C  0.34247461  0.83460894  0.71357423    -0.54500
C820        C  0.31986289  0.81438527  0.73383670     0.09600
H821        H  0.35998316  0.78321592  0.64277818     0.14100
H822        H  0.27666278  0.77804425  0.72479727    -0.00200
H823        H  0.28605374  0.85931544  0.64812503     0.14400
H824        H  0.36131939  0.85195097  0.72661040     0.14200
C825        C  0.33445563  0.82314544  0.84004174     0.86000
C826        C  0.29293600  0.82945336  0.84555728    -0.54200
C827        C  0.27087256  0.81113054  0.82284875     0.08900
C828        C  0.29300749  0.78880744  0.79643653     0.19900
C829        C  0.33916784  0.78407966  0.84330686    -0.55000
C830        C  0.31706471  0.76563520  0.82026741     0.09000
C831        C  0.34043359  0.83102650  0.79874810    -0.54500
C832        C  0.31890597  0.81258392  0.77539875     0.09600
H833        H  0.28164107  0.84770230  0.86448786     0.14100
H834        H  0.27591631  0.77502843  0.77867115    -0.00200
H835        H  0.35815491  0.77245637  0.86236648     0.14400
H836        H  0.36004123  0.84962688  0.78918862     0.14200
C837        C  0.12037481  0.62747088  0.91214987    -0.21800
C838        C  0.09384803  0.60603879  0.89670240    -0.09800
C839        C  0.08586657  0.60910698  0.85914413     0.29000
C840        C  0.10563717  0.63150816  0.83716239    -0.21800
C841        C  0.13418464  0.65141746  0.85187292    -0.09900
C842        C  0.13999638  0.65018508  0.89018329     0.29000
F843        F  0.16542690  0.67038280  0.90633067    -0.20400
H844        H  0.12632649  0.62643646  0.94124225     0.17400
H845        H  0.09792529  0.63260196  0.80869713     0.17400
F846        F  0.05970339  0.58965785  0.84311648    -0.20400
C847        C  0.15951447  0.88100766  0.61734811    -0.21800
C848        C  0.14547647  0.86281546  0.64747932    -0.09800
C849        C  0.10780078  0.86562124  0.65497359     0.29000
C850        C  0.08591478  0.88816799  0.63503436    -0.21800
C851        C  0.10072102  0.90744371  0.60631943    -0.09900
C852        C  0.13761907  0.90305011  0.59718729     0.29000
F853        F  0.15298193  0.92031904  0.56891291    -0.20400
H854        H  0.18722099  0.87804589  0.60814434     0.17400
H855        H  0.05729994  0.89029247  0.64192500     0.17400
F856        F  0.09204425  0.84653808  0.68162019    -0.20400
C857        C  0.40793228  0.62261585  0.62364683    -0.21800
C858        C  0.39298071  0.60806927  0.59173333    -0.09800
C859        C  0.35797193  0.61846153  0.58058302     0.29000
C860        C  0.33773391  0.64089382  0.60221635    -0.21800
C861        C  0.35136088  0.65330361  0.63592342    -0.09900
C862        C  0.38778542  0.64541800  0.64508544     0.29000
F863        F  0.40395280  0.65938067  0.67505892    -0.20400
H864        H  0.43531279  0.61611295  0.63231277     0.17400
H865        H  0.31147432  0.64861216  0.59177418     0.17400
F866        F  0.34269450  0.60692580  0.54903581    -0.20400
C867        C  0.14898908  0.64789270  0.60119058    -0.21800
C868        C  0.13578498  0.66323310  0.63358953    -0.09800
C869        C  0.09856666  0.65857677  0.64213808     0.29000
C870        C  0.07731058  0.63518010  0.62241558    -0.21800
C871        C  0.09216303  0.61692661  0.59283560    -0.09900
C872        C  0.12774245  0.62484176  0.58131917     0.29000
F873        F  0.14269359  0.60958958  0.55147309    -0.20400
H874        H  0.17588153  0.65328854  0.59075145     0.17400
H875        H  0.04940940  0.63090563  0.63087695     0.17400
F876        F  0.08295368  0.67575853  0.67035297    -0.20400
C877        C  0.34651198  0.86035317  0.89694454    -0.21800
C878        C  0.35981931  0.84354718  0.86547620    -0.09800
C879        C  0.39730885  0.84706753  0.85736255     0.29000
C880        C  0.41901303  0.87038093  0.87679449    -0.21800
C881        C  0.40425785  0.88966104  0.90566508    -0.09900
C882        C  0.36812902  0.88328161  0.91646536     0.29000
F883        F  0.35297281  0.89995587  0.94529780    -0.20400
H884        H  0.31930785  0.85617139  0.90712161     0.17400
H885        H  0.44721940  0.87366486  0.86882451     0.17400
F886        F  0.41276572  0.82877194  0.82987698    -0.20400
C887        C  0.33873209  0.62824021  0.88552181    -0.21800
C888        C  0.35137486  0.64320499  0.85279028    -0.09800
C889        C  0.38816394  0.63752562  0.84288557     0.29000
C890        C  0.41000727  0.61499650  0.86293818    -0.21800
C891        C  0.39644391  0.59861798  0.89426543    -0.09900
C892        C  0.36078510  0.60624856  0.90591101     0.29000
F893        F  0.34689852  0.59240936  0.93701363    -0.20400
H894        H  0.31196304  0.63382925  0.89621159     0.17400
H895        H  0.43770567  0.61057843  0.85391585     0.17400
F896        F  0.40328700  0.65375055  0.81378751    -0.20400
C897        C  0.08650339  0.88058548  0.87787062    -0.21800
C898        C  0.10098611  0.89355588  0.91077196    -0.09800
C899        C  0.13508648  0.88139581  0.92268955     0.29000
C900        C  0.15569238  0.85996343  0.90014874    -0.21800
C901        C  0.14307017  0.85014445  0.86509209    -0.09900
C902        C  0.10685495  0.85861731  0.85566565     0.28600
F903        F  0.09108510  0.84610720  0.82474788    -0.20400
H904        H  0.05951715  0.88800096  0.86881300     0.17400
H905        H  0.18155730  0.85109916  0.91062128     0.17400
F906        F  0.14905203  0.89028904  0.95581426    -0.20400
C907        C  0.39344594  0.86949567  0.66076471    -0.21800
C908        C  0.36176792  0.85347809  0.64701778    -0.09800
C909        C  0.35350429  0.85784961  0.60942770     0.29000
C910        C  0.37381082  0.88022238  0.58773708    -0.21800
C911        C  0.40356458  0.89815629  0.60244667    -0.09900
C912        C  0.41402090  0.89154514  0.63888719     0.29000
F913        F  0.44380577  0.90676497  0.65378780    -0.20400
H914        H  0.40304515  0.86507370  0.68832830     0.17400
H915        H  0.36573606  0.88374256  0.55942238     0.17400
F916        F  0.32509186  0.84114828  0.59367588    -0.20400
C917        C  0.92233425  0.42447372  0.08019616     0.42000
N918        N  0.95596019  0.46735583  0.06631457     0.00800
C919        C  0.95387506  0.05819033  0.40329674    -0.07000
H920        H  0.97604936  0.42731690  0.38743586     0.06300
C921        C  0.59236466  0.44006418  0.46332385    -0.07400
Co922      Co  0.93246283  0.99967664  0.49586776     0.74200
N923        N  0.96387549  0.46017385  0.43332455    -0.26600
Co924      Co  0.50291553  0.49870426  0.43281783     0.74100
C925        C  0.58102497  0.42079897  0.43072553     0.42100
N926        N  0.56353651  0.47081463  0.04730738     0.00500
N927        N  0.54459356  0.46301933  0.43895340     0.00600
N928        N  0.90855736  0.05735834  0.44527504    -0.47400
H929        H  0.88794402  0.43093563  0.02754215     0.06300
N930        N  0.93719783  0.46054244  0.45753582     0.00900
N931        N  0.54187094  0.03733528  0.43378714     0.00600
C932        C  0.57568739  0.07978755  0.41930151     0.42200
N933        N  0.53680287  0.47119707  0.07147431    -0.26000
C934        C  0.90350859  0.06303602  0.03810313    -0.06900
N935        N  0.95055972  0.44389353  0.09181999    -0.47100
N936        N  0.54720926  0.06056878  0.40811390    -0.47300
C937        C  0.91385912  0.08168262  0.07141641     0.42000
N938        N  0.93395339  0.03457384  0.45293665     0.00800
N939        N  0.53365161  0.04522174  0.06625189    -0.26000
N940        N  0.93262690  0.46485405  0.03884372    -0.26500
N941        N  0.56050490  0.04470080  0.04218018     0.00500
H942        H  0.52083711  0.07878499  0.11128070     0.06400
H943        H  0.61071433  0.07349777  0.47150005     0.06400
N944        N  0.96069695  0.03431268  0.42873861    -0.26600
N945        N  0.56825919  0.46556170  0.46611480    -0.26200
N946        N  0.95250919  0.04158365  0.06154844     0.00800
C947        C  0.92571448  0.41696782  0.42375843     0.42200
C948        C  0.54347258  0.44747333  0.09706593    -0.07400
N949        N  0.56550153  0.03976707  0.46099351    -0.26200
H950        H  0.61514962  0.43622800  0.48166086     0.06400
N951        N  0.91370074  0.43544521  0.45256460    -0.47400
H952        H  0.52681915  0.44252605  0.12094622     0.06400
C953        C  0.57134294  0.08896516  0.07510809     0.42100
C954        C  0.91037929  0.43848200  0.04502952    -0.06900
Co955      Co  0.99464017  0.00642108  0.06729078     0.73800
N956        N  0.58885406  0.44808457  0.05512473    -0.47100
C957        C  0.91915229  0.07353321  0.41442852     0.42300
N958        N  0.94442922  0.06667596  0.08440643    -0.47100
Co959      Co  0.56526442  0.50524600  0.00418461     0.73900
C960        C  0.58798447  0.06593400  0.45439182    -0.07400
C961        C  0.95909424  0.43347338  0.41077625    -0.07000
N962        N  0.92889339  0.03881078  0.03438402    -0.26500
N963        N  0.55135086  0.43684489  0.41710952    -0.47300
H964        H  0.97052993  0.06325870  0.37945202     0.06400
C965        C  0.53806900  0.07233897  0.08824662    -0.07400
Cl966      Cl  0.49881385  0.00255984  0.00004042    -0.50400
C967        C  0.57809357  0.43215217  0.08601220     0.42100
H968        H  0.88033747  0.06610549  0.02009939     0.06300
N969        N  0.58374939  0.07010605  0.04675178    -0.47100
C970        C  0.65890995  0.17358595  0.32788948     0.86000
C971        C  0.70008987  0.16616264  0.33402057    -0.54200
C972        C  0.72313434  0.18659058  0.31442804     0.08900
C973        C  0.70190511  0.21191165  0.29044222     0.19900
C974        C  0.65451400  0.21198916  0.33610794    -0.55000
C975        C  0.67731678  0.23251482  0.31636819     0.09000
C976        C  0.65392826  0.17054569  0.28556055    -0.54500
C977        C  0.67648958  0.19092716  0.26563833     0.09600
H978        H  0.70972784  0.14647824  0.35242733     0.14100
H979        H  0.71940319  0.22742566  0.27513758    -0.00200
H980        H  0.63507977  0.22166291  0.35594768     0.14400
H981        H  0.63506101  0.15367699  0.27199846     0.14200
C982        C  0.66698839  0.32913538  0.33908765     0.86000
C983        C  0.66272644  0.33806142  0.29769682    -0.54200
C984        C  0.68301545  0.31819641  0.27459485     0.08900
C985        C  0.70595421  0.29216404  0.29591258     0.19900
C986        C  0.65864898  0.29072077  0.34171275    -0.55000
C987        C  0.67928756  0.27087323  0.31901543     0.09000
C988        C  0.70877380  0.33220566  0.34563828    -0.54500
C989        C  0.72956747  0.31256187  0.32286292     0.09600
H990        H  0.64560501  0.35854484  0.28783445     0.14100
H991        H  0.72201239  0.27715567  0.27847919    -0.00200
H992        H  0.63828425  0.28049185  0.36022625     0.14400
H993        H  0.72082859  0.34930565  0.36549952     0.14200
C994        C  0.66943009  0.33911600  0.17031701     0.86000
C995        C  0.71140527  0.34277907  0.16523639    -0.54200
C996        C  0.73161048  0.32053957  0.18543229     0.08900
C997        C  0.70730852  0.29728266  0.20887606     0.19900
C998        C  0.66110251  0.30132255  0.16207426    -0.55000
C999        C  0.68109601  0.27888952  0.18233273     0.09000
C1000       C  0.66403971  0.34310728  0.21236464    -0.54500
C1001       C  0.68377285  0.32071659  0.23305182     0.09600
H1002       H  0.72440323  0.36190505  0.14856297     0.14100
H1003       H  0.72291088  0.28036466  0.22457484    -0.00200
H1004       H  0.64110485  0.29339646  0.14181961     0.14400
H1005       H  0.64609042  0.36197330  0.22433845     0.14200
C1006       C  0.66103986  0.18331148  0.15941008     0.86000
C1007       C  0.65509080  0.17516100  0.20067419    -0.54200
C1008       C  0.67682815  0.19333007  0.22414601     0.08900
C1009       C  0.70266715  0.21714772  0.20333227     0.19900
C1010       C  0.65656404  0.22237011  0.15643290    -0.55000
C1011       C  0.67877495  0.24051125  0.17962367     0.09000
C1012       C  0.70245720  0.17679664  0.15392549    -0.54500
C1013       C  0.72457684  0.19481192  0.17691545     0.09600
H1014       H  0.63560302  0.15639792  0.21007994     0.14100
H1015       H  0.71978336  0.23070888  0.22118244    -0.00200
H1016       H  0.63768434  0.23420303  0.13741471     0.14400
H1017       H  0.71346568  0.15851333  0.13483856     0.14200
C1018       C  0.82704911  0.16691246  0.33004477     0.86000
C1019       C  0.83169506  0.16262564  0.28792642    -0.54200
C1020       C  0.81189500  0.18498844  0.26733697     0.08900
C1021       C  0.78865027  0.20851630  0.29158550     0.19900
C1022       C  0.83540567  0.20482066  0.33787706    -0.55000
C1023       C  0.81504048  0.22714178  0.31776455     0.09000
C1024       C  0.78508701  0.16323214  0.33569421    -0.54500
C1025       C  0.76455696  0.18527336  0.31532541     0.09600
H1026       H  0.84895283  0.14335493  0.27572426     0.14100
H1027       H  0.77303882  0.22534132  0.27578852    -0.00200
H1028       H  0.85563537  0.21290732  0.35782084     0.14400
H1029       H  0.77259475  0.14412572  0.35290013     0.14200
C1030       C  0.82791285  0.17535055  0.16140247     0.86000
C1031       C  0.78614866  0.17268185  0.15503500    -0.54200
C1032       C  0.76571956  0.19286000  0.17742156     0.08900
C1033       C  0.78953499  0.21322455  0.20424311     0.19900
C1034       C  0.83671066  0.21376828  0.15826682    -0.55000
C1035       C  0.81631220  0.23410628  0.18082330     0.09000
C1036       C  0.83220180  0.16686598  0.20283257    -0.54500
C1037       C  0.81227116  0.18715815  0.22576972     0.09600
H1038       H  0.77364358  0.15535430  0.13575995     0.14100
H1039       H  0.77367447  0.22841502  0.22170742    -0.00200
H1040       H  0.85710226  0.22363068  0.13955337     0.14400
H1041       H  0.84922057  0.14635781  0.21281408     0.14200
C1042       C  0.83701064  0.33147441  0.17128071     0.86000
C1043       C  0.84094956  0.29301728  0.16293720    -0.54200
C1044       C  0.81841501  0.27258020  0.18312210     0.08900
C1045       C  0.79423471  0.29338740  0.20931895     0.19900
C1046       C  0.79582513  0.33925133  0.16594651    -0.55000
C1047       C  0.77293895  0.31885399  0.18573237     0.09000
C1048       C  0.84247513  0.33460796  0.21357518    -0.54500
C1049       C  0.81986234  0.31438423  0.23383679     0.09600
H1050       H  0.85998570  0.28321486  0.14277786     0.14100
H1051       H  0.77668744  0.27806656  0.22477526    -0.00200
H1052       H  0.78605590  0.35931590  0.14812337     0.14400
H1053       H  0.86132140  0.35195130  0.22661062     0.14200
C1054       C  0.83445382  0.32314602  0.34004285     0.86000
C1055       C  0.79293341  0.32945328  0.34555751    -0.54200
C1056       C  0.77087098  0.31112990  0.32284833     0.08900
C1057       C  0.79300250  0.28880446  0.29643306     0.19900
C1058       C  0.83916592  0.28407971  0.34330773    -0.55000
C1059       C  0.81706286  0.26563570  0.32026749     0.09000
C1060       C  0.84043196  0.33102667  0.29874855    -0.54500
C1061       C  0.81890435  0.31258337  0.27539954     0.09600
H1062       H  0.78163906  0.34770317  0.36448943     0.14100
H1063       H  0.77593767  0.27504804  0.27869608    -0.00200
H1064       H  0.85815423  0.27245724  0.36236904     0.14400
H1065       H  0.86004125  0.34962807  0.28919040     0.14200
C1066       C  0.62037275  0.12747295  0.41215131    -0.21800
C1067       C  0.59384791  0.10603904  0.39670354    -0.09800
C1068       C  0.58586842  0.10910477  0.35914462     0.29000
C1069       C  0.60563897  0.13150549  0.33716274    -0.21800
C1070       C  0.63418475  0.15141722  0.35187351    -0.09900
C1071       C  0.63999436  0.15018666  0.39018461     0.29000
F1072       F  0.66542326  0.17038629  0.40633197    -0.20400
H1073       H  0.62632284  0.12644023  0.44124403     0.17400
H1074       H  0.59792922  0.13259719  0.30869696     0.17400
F1075       F  0.55970750  0.08965338  0.34311660    -0.20400
C1076       C  0.65951561  0.38100666  0.11734593    -0.21800
C1077       C  0.64547803  0.36281608  0.14747896    -0.09800
C1078       C  0.60780243  0.36562414  0.15497419     0.29000
C1079       C  0.58591710  0.38817116  0.13503511    -0.21800
C1080       C  0.60072316  0.40744519  0.10631878    -0.09900
C1081       C  0.63762056  0.40304930  0.09718502     0.29000
F1082       F  0.65298282  0.42031595  0.06890879    -0.20400
H1083       H  0.68722164  0.37804275  0.10814173     0.17400
H1084       H  0.55730279  0.39029712  0.14192700     0.17400
F1085       F  0.59204593  0.34654246  0.18162214    -0.20400
C1086       C  0.90793142  0.12261422  0.12364754    -0.21800
C1087       C  0.89297962  0.10806781  0.09173405    -0.09800
C1088       C  0.85797051  0.11845963  0.08058439     0.29000
C1089       C  0.83773270  0.14089172  0.10221790    -0.21800
C1090       C  0.85135985  0.15330203  0.13592504    -0.09900
C1091       C  0.88778479  0.14541607  0.14508645     0.29000
F1092       F  0.90395226  0.15937875  0.17505997    -0.20400
H1093       H  0.93531201  0.11611152  0.13231311     0.17400
H1094       H  0.81147288  0.14860999  0.09177640     0.17400
F1095       F  0.84269270  0.10692363  0.04903758    -0.20400
C1096       C  0.64898887  0.14789238  0.10119205    -0.21800
C1097       C  0.63578497  0.16323335  0.13359110    -0.09800
C1098       C  0.59856642  0.15857648  0.14213967     0.29000
C1099       C  0.57731071  0.13517938  0.12241780    -0.21800
C1100       C  0.59216324  0.11692567  0.09283807    -0.09900
C1101       C  0.62774251  0.12484103  0.08132126     0.29000
F1102       F  0.64269364  0.10958860  0.05147541    -0.20400
H1103       H  0.67588136  0.15328850  0.09075312     0.17400
H1104       H  0.54940965  0.13090477  0.13087944     0.17400
F1105       F  0.58295356  0.17575858  0.17035448    -0.20400
C1106       C  0.84650920  0.36035523  0.39694433    -0.21800
C1107       C  0.85981667  0.34354724  0.36547690    -0.09800
C1108       C  0.89730708  0.34706560  0.35736498     0.29000
C1109       C  0.91901179  0.37037813  0.37679710    -0.21800
C1110       C  0.90425662  0.38965970  0.40566651    -0.09900
C1111       C  0.86812687  0.38328269  0.41646542     0.29000
F1112       F  0.85297059  0.39995845  0.44529670    -0.20400
H1113       H  0.81930435  0.35617531  0.40711998     0.17400
H1114       H  0.94721868  0.37366022  0.36882827     0.17400
F1115       F  0.91276367  0.32876835  0.32988046    -0.20400
C1116       C  0.83873384  0.12824169  0.38552330    -0.21800
C1117       C  0.85137555  0.14320600  0.35279079    -0.09800
C1118       C  0.88816475  0.13752606  0.34288548     0.29000
C1119       C  0.91000845  0.11499749  0.36293799    -0.21800
C1120       C  0.89644584  0.09861971  0.39426599    -0.09900
C1121       C  0.86078731  0.10625058  0.40591233     0.29000
F1122       F  0.84690151  0.09241201  0.43701554    -0.20400
H1123       H  0.81196494  0.13383110  0.39621308     0.17400
H1124       H  0.93770645  0.11057916  0.35391500     0.17400
F1125       F  0.90328694  0.15375038  0.31378647    -0.20400
C1126       C  0.58650164  0.38058591  0.37786978    -0.21800
C1127       C  0.60098399  0.39355481  0.41077198    -0.09800
C1128       C  0.63508362  0.38139337  0.42268999     0.29000
C1129       C  0.65568928  0.35996121  0.40014897    -0.21800
C1130       C  0.64306799  0.35014372  0.36509118    -0.09900
C1131       C  0.60685292  0.35861815  0.35566444     0.28600
F1132       F  0.59108351  0.34610941  0.32474573    -0.20400
H1133       H  0.55951585  0.38800235  0.36881176     0.17400
H1134       H  0.68155382  0.35109567  0.41062136     0.17400
F1135       F  0.64904851  0.39028507  0.45581536    -0.20400
C1136       C  0.89344754  0.36949431  0.16076568    -0.21800
C1137       C  0.86176930  0.35347647  0.14701870    -0.09800
C1138       C  0.85350645  0.35784807  0.10942816     0.29000
C1139       C  0.87381285  0.38022096  0.08773797    -0.21800
C1140       C  0.90356622  0.39815519  0.10244792    -0.09900
C1141       C  0.91402251  0.39154384  0.13888843     0.29000
F1142       F  0.94380727  0.40676362  0.15378912    -0.20400
H1143       H  0.90304608  0.36507209  0.18832944     0.17400
H1144       H  0.86573831  0.38374104  0.05942330     0.17400
F1145       F  0.82509437  0.34114623  0.09367616    -0.20400
C1146       C  0.92233490  0.42447267  0.58019523     0.42000
N1147       N  0.95596041  0.46735528  0.56631408     0.00800
C1148       C  0.95387456  0.05819048  0.90329633    -0.07000
H1149       H  0.97605030  0.42731676  0.88743689     0.06300
C1150       C  0.59236509  0.44006466  0.96332438    -0.07400
Co1151     Co  0.93246250  0.99967649  0.99586695     0.74200
N1152       N  0.96387583  0.46017396  0.93332521    -0.26600
Co1153     Co  0.50291560  0.49870381  0.93281718     0.74100
C1154       C  0.58102547  0.42079885  0.93072649     0.42100
N1155       N  0.56353610  0.47081348  0.54730772     0.00500
N1156       N  0.54459387  0.46301918  0.93895340     0.00600
N1157       N  0.90855708  0.05735856  0.94527483    -0.47400
H1158       H  0.88794459  0.43093472  0.52754124     0.06300
N1159       N  0.93719805  0.46054259  0.95753632     0.00900
N1160       N  0.54187021  0.03733663  0.93378855     0.00600
C1161       C  0.57568592  0.07979005  0.91930451     0.42200
N1162       N  0.53680261  0.47119617  0.57147475    -0.26000
C1163       C  0.90350919  0.06303672  0.53810329    -0.06900
N1164       N  0.95056020  0.44389271  0.59181919    -0.47100
N1165       N  0.54720806  0.06057121  0.90811623    -0.47300
C1166       C  0.91385978  0.08168370  0.57141630     0.42000
N1167       N  0.93395288  0.03457395  0.95293621     0.00800
N1168       N  0.53365199  0.04522193  0.56625071    -0.26000
N1169       N  0.93262704  0.46485355  0.53884319    -0.26500
N1170       N  0.56050535  0.04470103  0.54217914     0.00500
H1171       H  0.52083788  0.07878427  0.61128034     0.06400
H1172       H  0.61071292  0.07349896  0.97150283     0.06400
N1173       N  0.96069641  0.03431276  0.92873795    -0.26600
N1174       N  0.56825948  0.46556212  0.96611475    -0.26200
N1175       N  0.95250964  0.04158438  0.56154893     0.00800
C1176       C  0.92571521  0.41696766  0.92375921     0.42200
C1177       C  0.54347196  0.44747212  0.59706617    -0.07400
N1178       N  0.56550086  0.03976786  0.96099488    -0.26200
H1179       H  0.61514996  0.43622885  0.98166150     0.06400
N1180       N  0.91370116  0.43544517  0.95256516    -0.47400
H1181       H  0.52681852  0.44252491  0.62094642     0.06400
C1182       C  0.57134389  0.08896458  0.57510815     0.42100
C1183       C  0.91037979  0.43848121  0.54502876    -0.06900
Co1184     Co  0.99464040  0.00642152  0.56729168     0.73800
N1185       N  0.58885328  0.44808292  0.55512479    -0.47100
C1186       C  0.91915205  0.07353349  0.91442836     0.42300
N1187       N  0.94442978  0.06667693  0.58440648    -0.47100
Co1188     Co  0.56526451  0.50524524  0.50418524     0.73900
C1189       C  0.58798336  0.06593532  0.95439417    -0.07400
C1190       C  0.95909490  0.43347334  0.91077711    -0.07000
N1191       N  0.92889378  0.03881130  0.53438442    -0.26500
N1192       N  0.55135129  0.43684439  0.91711009    -0.47300
H1193       H  0.97052955  0.06325891  0.87945149     0.06400
C1194       C  0.53806959  0.07233869  0.58824602    -0.07400
Cl1195     Cl  0.49881447  0.00255943  0.50003958    -0.50400
C1196       C  0.57809263  0.43215045  0.58601218     0.42100
H1197       H  0.88033793  0.06610615  0.52009940     0.06300
N1198       N  0.58375031  0.07010585  0.54675150    -0.47100
C1199       C  0.65891044  0.17358731  0.82789286     0.86000
C1200       C  0.70009041  0.16616344  0.83402307    -0.54200
C1201       C  0.72313476  0.18659104  0.81442991     0.08900
C1202       C  0.70190524  0.21191204  0.79044443     0.19900
C1203       C  0.65451528  0.21199053  0.83611110    -0.55000
C1204       C  0.67731778  0.23251574  0.81637059     0.09000
C1205       C  0.65392804  0.17054653  0.78556400    -0.54500
C1206       C  0.67648928  0.19092758  0.76564106     0.09600
H1207       H  0.70972860  0.14647900  0.85242958     0.14100
H1208       H  0.71940411  0.22742664  0.77513862    -0.00200
H1209       H  0.63508170  0.22166468  0.85595118     0.14400
H1210       H  0.63506104  0.15367701  0.77200260     0.14200
C1211       C  0.66698993  0.32913642  0.83908866     0.86000
C1212       C  0.66272738  0.33806191  0.79769775    -0.54200
C1213       C  0.68301608  0.31819662  0.77459579     0.08900
C1214       C  0.70595508  0.29216466  0.79591379     0.19900
C1215       C  0.65865062  0.29072191  0.84171451    -0.55000
C1216       C  0.67928883  0.27087408  0.81901725     0.09000
C1217       C  0.70877537  0.33220685  0.84563875    -0.54500
C1218       C  0.72956876  0.31256276  0.82286345     0.09600
H1219       H  0.64560575  0.35854508  0.78783526     0.14100
H1220       H  0.72201382  0.27715522  0.77847941    -0.00200
H1221       H  0.63828615  0.28049321  0.86022838     0.14400
H1222       H  0.72083045  0.34930704  0.86549960     0.14200
C1223       C  0.66942959  0.33911484  0.67031772     0.86000
C1224       C  0.71140470  0.34277823  0.66523686    -0.54200
C1225       C  0.73161028  0.32053913  0.68543287     0.08900
C1226       C  0.70730848  0.29728230  0.70887686     0.19900
C1227       C  0.66110229  0.30132128  0.66207541    -0.55000
C1228       C  0.68109604  0.27888855  0.68233398     0.09000
C1229       C  0.66403937  0.34310646  0.71236534    -0.54500
C1230       C  0.68377290  0.32071618  0.73305270     0.09600
H1231       H  0.72440244  0.36190415  0.64856330     0.14100
H1232       H  0.72291206  0.28036341  0.72457670    -0.00200
H1233       H  0.64110460  0.29339483  0.64182106     0.14400
H1234       H  0.64609011  0.36197238  0.72433907     0.14200
C1235       C  0.66104005  0.18331006  0.65941283     0.86000
C1236       C  0.65509078  0.17516023  0.70067708    -0.54200
C1237       C  0.67682809  0.19332964  0.72414864     0.08900
C1238       C  0.70266712  0.21714692  0.70333429     0.19900
C1239       C  0.65656420  0.22236867  0.65643496    -0.55000
C1240       C  0.67877503  0.24051022  0.67962546     0.09000
C1241       C  0.70245733  0.17679512  0.65392844    -0.54500
C1242       C  0.72457696  0.19481094  0.67691774     0.09600
H1243       H  0.63560290  0.15639750  0.71008322     0.14100
H1244       H  0.71978431  0.23070923  0.72118513    -0.00200
H1245       H  0.63768459  0.23420135  0.63741655     0.14400
H1246       H  0.71346595  0.15851149  0.63484212     0.14200
C1247       C  0.82704951  0.16691270  0.83004500     0.86000
C1248       C  0.83169515  0.16262576  0.78792670    -0.54200
C1249       C  0.81189518  0.18498863  0.76733739     0.08900
C1250       C  0.78865062  0.20851642  0.79158620     0.19900
C1251       C  0.83540625  0.20482084  0.83787724    -0.55000
C1252       C  0.81504098  0.22714200  0.81776491     0.09000
C1253       C  0.78508755  0.16323236  0.83569487    -0.54500
C1254       C  0.76455734  0.18527358  0.81532634     0.09600
H1255       H  0.84895250  0.14335497  0.77572435     0.14100
H1256       H  0.77303819  0.22534246  0.77578848    -0.00200
H1257       H  0.85563610  0.21290750  0.85782079     0.14400
H1258       H  0.77259548  0.14412606  0.85290093     0.14200
C1259       C  0.82791296  0.17535081  0.66140289     0.86000
C1260       C  0.78614875  0.17268177  0.65503585    -0.54200
C1261       C  0.76571968  0.19285972  0.67742274     0.08900
C1262       C  0.78953529  0.21322458  0.70424365     0.19900
C1263       C  0.83671043  0.21376852  0.65826700    -0.55000
C1264       C  0.81631210  0.23410644  0.68082357     0.09000
C1265       C  0.83220231  0.16686639  0.70283298    -0.54500
C1266       C  0.81227160  0.18715845  0.72577023     0.09600
H1267       H  0.77364368  0.15535411  0.63576097     0.14100
H1268       H  0.77367404  0.22841592  0.72170888    -0.00200
H1269       H  0.85710179  0.22363103  0.63955335     0.14400
H1270       H  0.84922122  0.14635834  0.71281446     0.14200
C1271       C  0.83701039  0.33147445  0.67128052     0.86000
C1272       C  0.84094926  0.29301735  0.66293708    -0.54200
C1273       C  0.81841493  0.27258031  0.68312224     0.08900
C1274       C  0.79423503  0.29338766  0.70931916     0.19900
C1275       C  0.79582480  0.33925132  0.66594665    -0.55000
C1276       C  0.77293880  0.31885399  0.68573278     0.09000
C1277       C  0.84247531  0.33460814  0.71357491    -0.54500
C1278       C  0.81986279  0.31438443  0.73383684     0.09600
H1279       H  0.85998513  0.28321489  0.64277768     0.14100
H1280       H  0.77668681  0.27806583  0.72477662    -0.00200
H1281       H  0.78605531  0.35931572  0.64812354     0.14400
H1282       H  0.86132165  0.35195146  0.72661009     0.14200
C1283       C  0.83445518  0.32314610  0.84004283     0.86000
C1284       C  0.79293490  0.32945378  0.84555761    -0.54200
C1285       C  0.77087220  0.31113052  0.82284863     0.08900
C1286       C  0.79300351  0.28880486  0.79643346     0.19900
C1287       C  0.83916693  0.28407980  0.84330783    -0.55000
C1288       C  0.81706365  0.26563589  0.82026775     0.09000
C1289       C  0.84043325  0.33102662  0.79874848    -0.54500
C1290       C  0.81890532  0.31258348  0.77539959     0.09600
H1291       H  0.78164082  0.34770385  0.86448936     0.14100
H1292       H  0.77593759  0.27504767  0.77869564    -0.00200
H1293       H  0.85815516  0.27245718  0.86236909     0.14400
H1294       H  0.86004254  0.34962787  0.78919010     0.14200
C1295       C  0.62037467  0.12747294  0.91215467    -0.21800
C1296       C  0.59384630  0.10604245  0.89670741    -0.09800
C1297       C  0.58586338  0.10911224  0.85914959     0.29000
C1298       C  0.60563480  0.13151246  0.83716778    -0.21800
C1299       C  0.63418476  0.15141957  0.85187754    -0.09900
C1300       C  0.63999699  0.15018629  0.89018813     0.29000
F1301       F  0.66542908  0.17038270  0.90633506    -0.20400
H1302       H  0.62632721  0.12643766  0.94124678     0.17400
H1303       H  0.59792214  0.13260809  0.80870289     0.17400
F1304       F  0.55969789  0.08966554  0.84312252    -0.20400
C1305       C  0.65951460  0.38100471  0.61734594    -0.21800
C1306       C  0.64547723  0.36281461  0.64747939    -0.09800
C1307       C  0.60780167  0.36562277  0.65497476     0.29000
C1308       C  0.58591624  0.38816961  0.63503546    -0.21800
C1309       C  0.60072215  0.40744332  0.60631877    -0.09900
C1310       C  0.63761945  0.40304714  0.59718481     0.29000
F1311       F  0.65298158  0.42031335  0.56890820    -0.20400
H1312       H  0.68722056  0.37804061  0.60814155     0.17400
H1313       H  0.55730196  0.39029576  0.64192753     0.17400
F1314       F  0.59204530  0.34654145  0.68162309    -0.20400
C1315       C  0.90793198  0.12261545  0.62364728    -0.21800
C1316       C  0.89298025  0.10806897  0.59173379    -0.09800
C1317       C  0.85797104  0.11846066  0.58058420     0.29000
C1318       C  0.83773295  0.14089233  0.60221804    -0.21800
C1319       C  0.85136005  0.15330251  0.63592525    -0.09900
C1320       C  0.88778516  0.14541699  0.64508640     0.29000
F1321       F  0.90395260  0.15937971  0.67505991    -0.20400
H1322       H  0.93531269  0.11611298  0.63231274     0.17400
H1323       H  0.81147295  0.14861039  0.59177675     0.17400
F1324       F  0.84269344  0.10692493  0.54903717    -0.20400
C1325       C  0.64899013  0.14789044  0.60119492    -0.21800
C1326       C  0.63578561  0.16323149  0.63359371    -0.09800
C1327       C  0.59856694  0.15857463  0.64214158     0.29000
C1328       C  0.57731146  0.13517787  0.62241896    -0.21800
C1329       C  0.59216445  0.11692426  0.59283935    -0.09900
C1330       C  0.62774419  0.12483909  0.58132370     0.29000
F1331       F  0.64269614  0.10958627  0.55147850    -0.20400
H1332       H  0.67588272  0.15328655  0.59075633     0.17400
H1333       H  0.54941013  0.13090357  0.63087981     0.17400
F1334       F  0.58295356  0.17575668  0.67035612    -0.20400
C1335       C  0.84651074  0.36035415  0.89694509    -0.21800
C1336       C  0.85981811  0.34354710  0.86547704    -0.09800
C1337       C  0.89730838  0.34706597  0.85736489     0.29000
C1338       C  0.91901295  0.37037838  0.87679736    -0.21800
C1339       C  0.90425773  0.38965933  0.90566725    -0.09900
C1340       C  0.86812823  0.38328157  0.91646644     0.29000
F1341       F  0.85297201  0.39995661  0.94529826    -0.20400
H1342       H  0.81930607  0.35617353  0.90712097     0.17400
H1343       H  0.94721970  0.37366095  0.86882835     0.17400
F1344       F  0.91276501  0.32876936  0.82987990    -0.20400
C1345       C  0.83873469  0.12824336  0.88552424    -0.21800
C1346       C  0.85137593  0.14320630  0.85279086    -0.09800
C1347       C  0.88816467  0.13752529  0.84288466     0.29000
C1348       C  0.91000820  0.11499672  0.86293717    -0.21800
C1349       C  0.89644591  0.09862010  0.89426601    -0.09900
C1350       C  0.86078801  0.10625219  0.90591325     0.29000
F1351       F  0.84690274  0.09241483  0.93701733    -0.20400
H1352       H  0.81196626  0.13383387  0.89621466     0.17400
H1353       H  0.93770582  0.11057744  0.85391349     0.17400
F1354       F  0.90328666  0.15374858  0.81378486    -0.20400
C1355       C  0.58650247  0.38058534  0.87787139    -0.21800
C1356       C  0.60098488  0.39355483  0.91077326    -0.09800
C1357       C  0.63508503  0.38139439  0.92269096     0.29000
C1358       C  0.65569117  0.35996282  0.90014973    -0.21800
C1359       C  0.64306964  0.35014479  0.86509220    -0.09900
C1360       C  0.60685417  0.35861808  0.85566592     0.28600
F1361       F  0.59108474  0.34610873  0.82474751    -0.20400
H1362       H  0.55951637  0.38800097  0.86881370     0.17400
H1363       H  0.68155611  0.35109808  0.91062180     0.17400
F1364       F  0.64904992  0.39028649  0.95581622    -0.20400
C1365       C  0.89344809  0.36949319  0.66076475    -0.21800
C1366       C  0.86176909  0.35347631  0.64701821    -0.09800
C1367       C  0.85350590  0.35784819  0.60942778     0.29000
C1368       C  0.87381268  0.38022063  0.58773736    -0.21800
C1369       C  0.90356676  0.39815414  0.60244696    -0.09900
C1370       C  0.91402345  0.39154225  0.63888725     0.29000
F1371       F  0.94380906  0.40676099  0.65378746    -0.20400
H1372       H  0.90304692  0.36507051  0.68832827     0.17400
H1373       H  0.86573785  0.38374100  0.55942287     0.17400
F1374       F  0.82509325  0.34114699  0.59367605    -0.20400
C1375       C  0.92233334  0.92447291  0.08019292     0.42000
N1376       N  0.95595923  0.96735534  0.06631248     0.00800
C1377       C  0.95387260  0.55818890  0.40329638    -0.07000
H1378       H  0.97605167  0.92731811  0.38743559     0.06300
C1379       C  0.59236596  0.94006437  0.46332506    -0.07400
Co1380     Co  0.93246239  0.49967574  0.49586829     0.74200
N1381       N  0.96387676  0.96017468  0.43332430    -0.26600
Co1382     Co  0.50291697  0.99870400  0.43281718     0.74100
C1383       C  0.58102706  0.92079888  0.43072673     0.42100
N1384       N  0.56353504  0.97081304  0.04730807     0.00500
N1385       N  0.54459502  0.96301897  0.43895357     0.00600
N1386       N  0.90855524  0.55735680  0.44527507    -0.47400
H1387       H  0.88794363  0.93093541  0.02753862     0.06300
N1388       N  0.93719856  0.96054333  0.45753497     0.00900
N1389       N  0.54186987  0.53733573  0.43378707     0.00600
C1390       C  0.57568725  0.57978748  0.41930114     0.42200
N1391       N  0.53680126  0.97119560  0.07147485    -0.26000
C1392       C  0.90350873  0.56303571  0.03810376    -0.06900
N1393       N  0.95055862  0.94389263  0.09181733    -0.47100
N1394       N  0.54720854  0.56056919  0.40811377    -0.47300
C1395       C  0.91385932  0.58168283  0.07141656     0.42000
N1396       N  0.93395169  0.53457280  0.45293684     0.00800
N1397       N  0.53365158  0.54522294  0.06624980    -0.26000
N1398       N  0.93262619  0.96485392  0.03884135    -0.26500
N1399       N  0.56050471  0.54470230  0.04217776     0.00500
H1400       H  0.52083703  0.57878585  0.11127882     0.06400
H1401       H  0.61071457  0.57349685  0.47149930     0.06400
N1402       N  0.96069508  0.53431174  0.42873847    -0.26600
N1403       N  0.56826019  0.96556169  0.46611529    -0.26200
N1404       N  0.95250964  0.54158401  0.06154921     0.00800
C1405       C  0.92571586  0.91696903  0.42375681     0.42200
C1406       C  0.54347035  0.94747140  0.09706618    -0.07400
N1407       N  0.56550085  0.53976712  0.46099320    -0.26200
H1408       H  0.61515048  0.93622847  0.48166260     0.06400
N1409       N  0.91370147  0.93544621  0.45256291    -0.47400
H1410       H  0.52681683  0.94252414  0.12094637     0.06400
C1411       C  0.57134231  0.58896675  0.07510569     0.42100
C1412       C  0.91037864  0.93848167  0.04502641    -0.06900
Co1413     Co  0.99464098  0.50642169  0.06729170     0.73800
N1414       N  0.58885210  0.94808256  0.05512526    -0.47100
C1415       C  0.91914976  0.57353136  0.41442818     0.42300
N1416       N  0.94442958  0.56667658  0.08440677    -0.47100
Co1417     Co  0.56526425  0.00524531  0.00418623     0.73900
C1418       C  0.58798428  0.56593359  0.45439127    -0.07400
C1419       C  0.95909595  0.93347449  0.41077562    -0.07000
N1420       N  0.92889367  0.53881065  0.03438495    -0.26500
N1421       N  0.55135297  0.93684439  0.41711003    -0.47300
H1422       H  0.97052722  0.56325706  0.37945128     0.06400
C1423       C  0.53806875  0.57234020  0.08824439    -0.07400
Cl1424     Cl  0.49881400  0.50255959  0.00003962    -0.50400
C1425       C  0.57809114  0.93214997  0.08601245     0.42100
H1426       H  0.88033739  0.56610466  0.02010008     0.06300
N1427       N  0.58374886  0.57010778  0.04674923    -0.47100
C1428       C  0.65891031  0.67358772  0.32788978     0.86000
C1429       C  0.70008952  0.66616336  0.33402047    -0.54200
C1430       C  0.72313466  0.68659055  0.31442808     0.08900
C1431       C  0.70190155  0.71190908  0.29044546     0.19900
C1432       C  0.65451503  0.71199035  0.33610884    -0.55000
C1433       C  0.67731746  0.73251625  0.31636927     0.09000
C1434       C  0.65392760  0.67054714  0.28556162    -0.54500
C1435       C  0.67648860  0.69092771  0.26563833     0.09600
H1436       H  0.70972834  0.64648009  0.35242567     0.14100
H1437       H  0.71942746  0.72744803  0.27511649    -0.00200
H1438       H  0.63508292  0.72166517  0.35594779     0.14400
H1439       H  0.63506162  0.65367953  0.27199899     0.14200
C1440       C  0.66699241  0.82913635  0.33908836     0.86000
C1441       C  0.66272889  0.83806238  0.29769822    -0.54200
C1442       C  0.68301668  0.81819755  0.27459520     0.08900
C1443       C  0.70595312  0.79216782  0.29591640     0.19900
C1444       C  0.65865246  0.79072241  0.34171434    -0.55000
C1445       C  0.67928955  0.77087399  0.31901694     0.09000
C1446       C  0.70877729  0.83220685  0.34563823    -0.54500
C1447       C  0.72957082  0.81256312  0.32286299     0.09600
H1448       H  0.64560807  0.85854426  0.28783525     0.14100
H1449       H  0.72203430  0.77713527  0.27845540    -0.00200
H1450       H  0.63828927  0.78049299  0.36022693     0.14400
H1451       H  0.72083378  0.84930577  0.36549741     0.14200
C1452       C  0.66942971  0.83911522  0.17031792     0.86000
C1453       C  0.71140417  0.84277882  0.16523662    -0.54200
C1454       C  0.73161033  0.82053986  0.18543185     0.08900
C1455       C  0.70730511  0.79728596  0.20887295     0.19900
C1456       C  0.66110192  0.80132244  0.16207487    -0.55000
C1457       C  0.68109516  0.77888893  0.18233254     0.09000
C1458       C  0.66403920  0.84310684  0.21236493    -0.54500
C1459       C  0.68377257  0.82071691  0.23305267     0.09600
H1460       H  0.72440310  0.86190339  0.14856452     0.14100
H1461       H  0.72293174  0.78034056  0.22459607    -0.00200
H1462       H  0.64110549  0.79339536  0.14182168     0.14400
H1463       H  0.64609107  0.86197132  0.22433959     0.14200
C1464       C  0.66103975  0.68331140  0.15941082     0.86000
C1465       C  0.65509032  0.67516090  0.20067435    -0.54200
C1466       C  0.67682733  0.69332968  0.22414655     0.08900
C1467       C  0.70266340  0.71714468  0.20332855     0.19900
C1468       C  0.65656370  0.72236947  0.15643305    -0.55000
C1469       C  0.67877425  0.74051128  0.17962322     0.09000
C1470       C  0.70245634  0.67679598  0.15392573    -0.54500
C1471       C  0.72457671  0.69481104  0.17691486     0.09600
H1472       H  0.63560379  0.65639924  0.21008138     0.14100
H1473       H  0.71980521  0.73072796  0.22120637    -0.00200
H1474       H  0.63768524  0.73420296  0.13741636     0.14400
H1475       H  0.71346575  0.65851359  0.13484046     0.14200
C1476       C  0.82704825  0.66691214  0.33004356     0.86000
C1477       C  0.83169461  0.66262496  0.28792580    -0.54200
C1478       C  0.81189530  0.68498770  0.26733571     0.08900
C1479       C  0.78865377  0.70851285  0.29158798     0.19900
C1480       C  0.83540592  0.70481958  0.33787620    -0.55000
C1481       C  0.81504180  0.72714165  0.31776416     0.09000
C1482       C  0.78508688  0.66323203  0.33569326    -0.54500
C1483       C  0.76455658  0.68527309  0.31532507     0.09600
H1484       H  0.84895086  0.64335541  0.27572284     0.14100
H1485       H  0.77301810  0.72536494  0.27576737    -0.00200
H1486       H  0.85563456  0.71290678  0.35781869     0.14400
H1487       H  0.77259339  0.64412700  0.35289765     0.14200
C1488       C  0.82791208  0.67535099  0.16140175     0.86000
C1489       C  0.78614851  0.67268182  0.15503401    -0.54200
C1490       C  0.76571885  0.69285943  0.17742041     0.08900
C1491       C  0.78953784  0.71322155  0.20423882     0.19900
C1492       C  0.83671007  0.71376807  0.15826570    -0.55000
C1493       C  0.81631221  0.73410658  0.18082172     0.09000
C1494       C  0.83220156  0.66686600  0.20283117    -0.54500
C1495       C  0.81227140  0.68715759  0.22576904     0.09600
H1496       H  0.77364244  0.65535560  0.13576014     0.14100
H1497       H  0.77365462  0.72843620  0.22172919    -0.00200
H1498       H  0.85710036  0.72363129  0.13955342     0.14400
H1499       H  0.84921917  0.64635903  0.21281353     0.14200
C1500       C  0.83700942  0.83147401  0.17127889     0.86000
C1501       C  0.84094847  0.79301752  0.16293504    -0.54200
C1502       C  0.81841492  0.77257991  0.18312008     0.08900
C1503       C  0.79423859  0.79339079  0.20931457     0.19900
C1504       C  0.79582454  0.83925135  0.16594529    -0.55000
C1505       C  0.77293820  0.81885455  0.18573129     0.09000
C1506       C  0.84247536  0.83460805  0.21357252    -0.54500
C1507       C  0.81986365  0.81438469  0.23383543     0.09600
H1508       H  0.85998270  0.78321432  0.14277672     0.14100
H1509       H  0.77666379  0.77804468  0.22479603    -0.00200
H1510       H  0.78605396  0.85931457  0.14812368     0.14400
H1511       H  0.86132055  0.85195009  0.22660822     0.14200
C1512       C  0.83445691  0.82314532  0.34004048     0.86000
C1513       C  0.79293733  0.82945363  0.34555587    -0.54200
C1514       C  0.77087370  0.81113077  0.32284770     0.08900
C1515       C  0.79300825  0.78880723  0.29643550     0.19900
C1516       C  0.83916871  0.78407949  0.34330595    -0.55000
C1517       C  0.81706538  0.76563505  0.32026666     0.09000
C1518       C  0.84043502  0.83102597  0.29874673    -0.54500
C1519       C  0.81890706  0.81258347  0.27539756     0.09600
H1520       H  0.78164250  0.84770296  0.36448605     0.14100
H1521       H  0.77591754  0.77502896  0.27867118    -0.00200
H1522       H  0.85815568  0.77245621  0.36236575     0.14400
H1523       H  0.86004298  0.84962604  0.28918711     0.14200
C1524       C  0.62037427  0.62747184  0.41215143    -0.21800
C1525       C  0.59384776  0.60603957  0.39670375    -0.09800
C1526       C  0.58586644  0.60910787  0.35914549     0.29000
C1527       C  0.60563689  0.63150930  0.33716396    -0.21800
C1528       C  0.63418428  0.65141865  0.35187457    -0.09900
C1529       C  0.63999583  0.65018623  0.39018499     0.29000
F1530       F  0.66542618  0.67038404  0.40633252    -0.20400
H1531       H  0.62632583  0.62643736  0.44124388     0.17400
H1532       H  0.59792498  0.63260312  0.30869870     0.17400
F1533       F  0.55970360  0.58965853  0.34311758    -0.20400
C1534       C  0.65951472  0.88100833  0.11734862    -0.21800
C1535       C  0.64547667  0.86281570  0.14747955    -0.09800
C1536       C  0.60780091  0.86562127  0.15497363     0.29000
C1537       C  0.58591480  0.88816782  0.13503425    -0.21800
C1538       C  0.60072103  0.90744379  0.10631950    -0.09900
C1539       C  0.63761926  0.90305074  0.09718780     0.29000
F1540       F  0.65298222  0.92032022  0.06891386    -0.20400
H1541       H  0.68722131  0.87804697  0.10814508     0.17400
H1542       H  0.55729986  0.89029197  0.14192465     0.17400
F1543       F  0.59204445  0.84653807  0.18162025    -0.20400
C1544       C  0.90793128  0.62261473  0.12364708    -0.21800
C1545       C  0.89297972  0.60806811  0.09173362    -0.09800
C1546       C  0.85797073  0.61845994  0.08058356     0.29000
C1547       C  0.83773263  0.64089212  0.10221694    -0.21800
C1548       C  0.85135974  0.65330223  0.13592382    -0.09900
C1549       C  0.88778437  0.64541677  0.14508573     0.29000
F1550       F  0.90395182  0.65937958  0.17505910    -0.20400
H1551       H  0.93531188  0.61611204  0.13231290     0.17400
H1552       H  0.81147288  0.64861019  0.09177491     0.17400
F1553       F  0.84269321  0.60692396  0.04903650    -0.20400
C1554       C  0.64898844  0.64789304  0.10119184    -0.21800
C1555       C  0.63578433  0.66323289  0.13359111    -0.09800
C1556       C  0.59856612  0.65857602  0.14213982     0.29000
C1557       C  0.57731019  0.63517952  0.12241694    -0.21800
C1558       C  0.59216267  0.61692665  0.09283652    -0.09900
C1559       C  0.62774201  0.62484215  0.08132018     0.29000
F1560       F  0.64269324  0.60959042  0.05147387    -0.20400
H1561       H  0.67588078  0.65328934  0.09075265     0.17400
H1562       H  0.54940906  0.63090475  0.13087835     0.17400
F1563       F  0.58295305  0.67575722  0.17035506    -0.20400
C1564       C  0.84651271  0.86035380  0.39694276    -0.21800
C1565       C  0.85982045  0.84354705  0.36547504    -0.09800
C1566       C  0.89731025  0.84706664  0.35736228     0.29000
C1567       C  0.91901447  0.87037976  0.37679466    -0.21800
C1568       C  0.90425889  0.88966060  0.40566450    -0.09900
C1569       C  0.86812954  0.88328229  0.41646360     0.29000
F1570       F  0.85297258  0.89995776  0.44529482    -0.20400
H1571       H  0.81930831  0.85617263  0.40711946     0.17400
H1572       H  0.94722128  0.87366294  0.36882555     0.17400
F1573       F  0.91276736  0.82877050  0.32987727    -0.20400
C1574       C  0.83873177  0.62824004  0.38552198    -0.21800
C1575       C  0.85137446  0.64320460  0.35279026    -0.09800
C1576       C  0.88816336  0.63752471  0.34288517     0.29000
C1577       C  0.91000668  0.61499572  0.36293786    -0.21800
C1578       C  0.89644347  0.59861765  0.39426546    -0.09900
C1579       C  0.86078472  0.60624834  0.40591112     0.29000
F1580       F  0.84689813  0.59240911  0.43701373    -0.20400
H1581       H  0.81196286  0.63382930  0.39621188     0.17400
H1582       H  0.93770487  0.61057738  0.35391534     0.17400
F1583       F  0.90328625  0.65374904  0.31378662    -0.20400
C1584       C  0.58650403  0.88058392  0.37787282    -0.21800
C1585       C  0.60098707  0.89355517  0.41077361    -0.09800
C1586       C  0.63508840  0.88139667  0.42269027     0.29000
C1587       C  0.65569474  0.85996512  0.40014895    -0.21800
C1588       C  0.64307194  0.85014525  0.36509279    -0.09900
C1589       C  0.60685604  0.85861652  0.35566738     0.28600
F1590       F  0.59108600  0.84610557  0.32475011    -0.20400
H1591       H  0.55951710  0.88799817  0.36881594     0.17400
H1592       H  0.68156039  0.85110200  0.41062090     0.17400
F1593       F  0.64905445  0.89029065  0.45581453    -0.20400
C1594       C  0.89344744  0.86949251  0.16076190    -0.21800
C1595       C  0.86176828  0.85347642  0.14701564    -0.09800
C1596       C  0.85350388  0.85784879  0.10942581     0.29000
C1597       C  0.87381040  0.88022163  0.08773522    -0.21800
C1598       C  0.90356509  0.89815447  0.10244444    -0.09900
C1599       C  0.91402255  0.89154183  0.13888431     0.29000
F1600       F  0.94380878  0.90675996  0.15378418    -0.20400
H1601       H  0.90304736  0.86506936  0.18832509     0.17400
H1602       H  0.86573487  0.88374274  0.05942087     0.17400
F1603       F  0.82509084  0.84114820  0.09367423    -0.20400
C1604       C  0.92233278  0.92447432  0.58019495     0.42000
N1605       N  0.95595921  0.96735611  0.56631372     0.00800
C1606       C  0.95387301  0.55818912  0.90329666    -0.07000
H1607       H  0.97605065  0.92731829  0.88743426     0.06300
C1608       C  0.59236529  0.94006499  0.96332440    -0.07400
Co1609     Co  0.93246254  0.49967602  0.99586862     0.74200
N1610       N  0.96387619  0.96017488  0.93332310    -0.26600
Co1611     Co  0.50291619  0.99870520  0.93281798     0.74100
C1612       C  0.58102622  0.92080007  0.93072572     0.42100
N1613       N  0.56353563  0.97081350  0.54730774     0.00500
N1614       N  0.54459422  0.96302003  0.93895360     0.00600
N1615       N  0.90855560  0.55735703  0.94527523    -0.47400
H1616       H  0.88794316  0.93093632  0.52754053     0.06300
N1617       N  0.93719809  0.96054352  0.95753392     0.00900
N1618       N  0.54186960  0.53733542  0.93378591     0.00600
C1619       C  0.57568689  0.57978693  0.91929925     0.42200
N1620       N  0.53680180  0.97119606  0.57147439    -0.26000
C1621       C  0.90350856  0.56303548  0.53810358    -0.06900
N1622       N  0.95055825  0.94389390  0.59181906    -0.47100
N1623       N  0.54720828  0.56056844  0.90811211    -0.47300
C1624       C  0.91385926  0.58168267  0.57141632     0.42000
N1625       N  0.93395199  0.53457304  0.95293709     0.00800
N1626       N  0.53365219  0.54522223  0.56625070    -0.26000
N1627       N  0.93262624  0.96485447  0.53884259    -0.26500
N1628       N  0.56050530  0.54470127  0.54217875     0.00500
H1629       H  0.52083767  0.57878569  0.61127923     0.06400
H1630       H  0.61071407  0.57349716  0.97149762     0.06400
N1631       N  0.96069547  0.53431193  0.92873878    -0.26600
N1632       N  0.56825955  0.96556227  0.96611536    -0.26200
N1633       N  0.95250947  0.54158370  0.56154900     0.00800
C1634       C  0.92571502  0.91696931  0.92375587     0.42200
C1635       C  0.54347092  0.94747210  0.59706594    -0.07400
N1636       N  0.56550045  0.53976732  0.96099207    -0.26200
H1637       H  0.61515009  0.93622879  0.98166164     0.06400
N1638       N  0.91370092  0.93544650  0.95256203    -0.47400
H1639       H  0.52681733  0.94252492  0.62094613     0.06400
C1640       C  0.57134304  0.58896601  0.57510613     0.42100
C1641       C  0.91037832  0.93848257  0.54502812    -0.06900
Co1642     Co  0.99464101  0.50642144  0.56729122     0.73800
N1643       N  0.58885281  0.94808315  0.55512516    -0.47100
C1644       C  0.91915012  0.57353164  0.91442835     0.42300
N1645       N  0.94442953  0.56667629  0.58440646    -0.47100
Co1646     Co  0.56526484  0.00524522  0.50418551     0.73900
C1647       C  0.58798384  0.56593368  0.95438971    -0.07400
C1648       C  0.95909510  0.93347472  0.91077442    -0.07000
N1649       N  0.92889341  0.53881032  0.53438472    -0.26500
N1650       N  0.55135210  0.93684590  0.91710952    -0.47300
H1651       H  0.97052766  0.56325729  0.87945157     0.06400
C1652       C  0.53806943  0.57233967  0.58824508    -0.07400
Cl1653     Cl  0.49881403  0.50255954  0.50004033    -0.50400
C1654       C  0.57809180  0.93215077  0.58601239     0.42100
H1655       H  0.88033721  0.56610453  0.52009993     0.06300
N1656       N  0.58374955  0.57010677  0.54674991    -0.47100
C1657       C  0.65890981  0.67358724  0.82788805     0.86000
C1658       C  0.70008896  0.66616294  0.83401892    -0.54200
C1659       C  0.72313420  0.68659036  0.81442702     0.08900
C1660       C  0.70190086  0.71190885  0.79044460     0.19900
C1661       C  0.65451420  0.71198976  0.83610742    -0.55000
C1662       C  0.67731655  0.73251599  0.81636819     0.09000
C1663       C  0.65392734  0.67054682  0.78555993    -0.54500
C1664       C  0.67648834  0.69092765  0.76563690     0.09600
H1665       H  0.70972780  0.64647953  0.85242383     0.14100
H1666       H  0.71942855  0.72744943  0.77511446    -0.00200
H1667       H  0.63508198  0.72166434  0.85594621     0.14400
H1668       H  0.63506169  0.65367908  0.77199718     0.14200
C1669       C  0.66699055  0.82913609  0.83908766     0.86000
C1670       C  0.66272789  0.83806243  0.79769757    -0.54200
C1671       C  0.68301594  0.81819770  0.77459479     0.08900
C1672       C  0.70595185  0.79216800  0.79591639     0.19900
C1673       C  0.65865056  0.79072211  0.84171323    -0.55000
C1674       C  0.67928815  0.77087378  0.81901611     0.09000
C1675       C  0.70877532  0.83220653  0.84563840    -0.54500
C1676       C  0.72956931  0.81256294  0.82286338     0.09600
H1677       H  0.64560772  0.85854452  0.78783431     0.14100
H1678       H  0.72203454  0.77713424  0.77845398    -0.00200
H1679       H  0.63828709  0.78049251  0.86022532     0.14400
H1680       H  0.72083145  0.84930521  0.86549808     0.14200
C1681       C  0.66942993  0.83911576  0.67031764     0.86000
C1682       C  0.71140437  0.84277927  0.66523655    -0.54200
C1683       C  0.73161033  0.82054018  0.68543182     0.08900
C1684       C  0.70730470  0.79728649  0.70887252     0.19900
C1685       C  0.66110203  0.80132310  0.66207437    -0.55000
C1686       C  0.68109506  0.77888943  0.68233203     0.09000
C1687       C  0.66403919  0.84310732  0.71236456    -0.54500
C1688       C  0.68377229  0.82071727  0.73305236     0.09600
H1689       H  0.72440348  0.86190379  0.64856463     0.14100
H1690       H  0.72293244  0.78033948  0.72459711    -0.00200
H1691       H  0.64110580  0.79339611  0.64182101     0.14400
H1692       H  0.64609112  0.86197175  0.72433918     0.14200
C1693       C  0.66103997  0.68331220  0.65940930     0.86000
C1694       C  0.65509044  0.67516131  0.70067271    -0.54200
C1695       C  0.67682731  0.69332988  0.72414518     0.08900
C1696       C  0.70266323  0.71714493  0.70332730     0.19900
C1697       C  0.65656381  0.72237022  0.65643193    -0.55000
C1698       C  0.67877426  0.74051187  0.67962231     0.09000
C1699       C  0.70245657  0.67679689  0.65392418    -0.54500
C1700       C  0.72457690  0.69481162  0.67691371     0.09600
H1701       H  0.63560393  0.65639963  0.71007957     0.14100
H1702       H  0.71980641  0.73072928  0.72120689    -0.00200
H1703       H  0.63768539  0.73420389  0.63741543     0.14400
H1704       H  0.71346613  0.65851483  0.63483871     0.14200
C1705       C  0.82704785  0.66691212  0.83004347     0.86000
C1706       C  0.83169460  0.66262507  0.78792576    -0.54200
C1707       C  0.81189523  0.68498769  0.76733553     0.08900
C1708       C  0.78865366  0.70851252  0.79158794     0.19900
C1709       C  0.83540525  0.70481953  0.83787633    -0.55000
C1710       C  0.81504115  0.72714160  0.81776427     0.09000
C1711       C  0.78508643  0.66323184  0.83569283    -0.54500
C1712       C  0.76455613  0.68527288  0.81532449     0.09600
H1713       H  0.84895105  0.64335579  0.77572289     0.14100
H1714       H  0.77301649  0.72536628  0.77576580    -0.00200
H1715       H  0.85563350  0.71290677  0.85781896     0.14400
H1716       H  0.77259285  0.64412688  0.85289706     0.14200
C1717       C  0.82791235  0.67535127  0.66140162     0.86000
C1718       C  0.78614887  0.67268218  0.65503350    -0.54200
C1719       C  0.76571901  0.69285972  0.67741979     0.08900
C1720       C  0.78953806  0.71322142  0.70423841     0.19900
C1721       C  0.83671047  0.71376836  0.65826592    -0.55000
C1722       C  0.81631246  0.73410680  0.68082192     0.09000
C1723       C  0.83220152  0.66686600  0.70283098    -0.54500
C1724       C  0.81227132  0.68715752  0.72576888     0.09600
H1725       H  0.77364286  0.65535614  0.63575945     0.14100
H1726       H  0.77365339  0.72843731  0.72173035    -0.00200
H1727       H  0.85710083  0.72363173  0.63955397     0.14400
H1728       H  0.84921896  0.64635903  0.71281341     0.14200
C1729       C  0.83700939  0.83147442  0.67128025     0.86000
C1730       C  0.84094881  0.79301801  0.66293620    -0.54200
C1731       C  0.81841507  0.77258012  0.68312071     0.08900
C1732       C  0.79423844  0.79339099  0.70931485     0.19900
C1733       C  0.79582464  0.83925158  0.66594599    -0.55000
C1734       C  0.77293809  0.81885468  0.68573158     0.09000
C1735       C  0.84247465  0.83460826  0.71357390    -0.54500
C1736       C  0.81986279  0.81438475  0.73383638     0.09600
H1737       H  0.85998333  0.78321496  0.64277812     0.14100
H1738       H  0.77666200  0.77804336  0.72479749    -0.00200
H1739       H  0.78605423  0.85931477  0.64812434     0.14400
H1740       H  0.86131940  0.85195026  0.72661017     0.14200
C1741       C  0.83445534  0.82314516  0.84004136     0.86000
C1742       C  0.79293577  0.82945327  0.84555697    -0.54200
C1743       C  0.77087219  0.81113052  0.82284856     0.08900
C1744       C  0.79300714  0.78880732  0.79643641     0.19900
C1745       C  0.83916742  0.78407939  0.84330659    -0.55000
C1746       C  0.81706425  0.76563494  0.82026720     0.09000
C1747       C  0.84043333  0.83102612  0.79874774    -0.54500
C1748       C  0.81890566  0.81258358  0.77539842     0.09600
H1749       H  0.78164087  0.84770228  0.86448741     0.14100
H1750       H  0.77591518  0.77502771  0.77867024    -0.00200
H1751       H  0.85815449  0.77245607  0.86236616     0.14400
H1752       H  0.86004105  0.84962630  0.78918822     0.14200
C1753       C  0.62037464  0.62747037  0.91214920    -0.21800
C1754       C  0.59384726  0.60603896  0.89670170    -0.09800
C1755       C  0.58586500  0.60910819  0.85914369     0.29000
C1756       C  0.60563559  0.63150961  0.83716215    -0.21800
C1757       C  0.63418380  0.65141798  0.85187265    -0.09900
C1758       C  0.63999614  0.65018477  0.89018287     0.29000
F1759       F  0.66542724  0.67038177  0.90633035    -0.20400
H1760       H  0.62632693  0.62643527  0.94124145     0.17400
H1761       H  0.59792305  0.63260441  0.80869709     0.17400
F1762       F  0.55970097  0.58966000  0.84311612    -0.20400
C1763       C  0.65951519  0.88100892  0.61734842    -0.21800
C1764       C  0.64547702  0.86281636  0.64747930    -0.09800
C1765       C  0.60780130  0.86562201  0.65497343     0.29000
C1766       C  0.58591530  0.88816876  0.63503423    -0.21800
C1767       C  0.60072161  0.90744461  0.60631945    -0.09900
C1768       C  0.63761977  0.90305136  0.59718760     0.29000
F1769       F  0.65298270  0.92032055  0.56891344    -0.20400
H1770       H  0.68722172  0.87804747  0.60814486     0.17400
H1771       H  0.55730042  0.89029305  0.64192471     0.17400
F1772       F  0.59204470  0.84653864  0.68161982    -0.20400
C1773       C  0.90793130  0.62261432  0.62364717    -0.21800
C1774       C  0.89297989  0.60806820  0.59173335    -0.09800
C1775       C  0.85797126  0.61846079  0.58058291     0.29000
C1776       C  0.83773323  0.64089303  0.60221635    -0.21800
C1777       C  0.85136011  0.65330252  0.63592360    -0.09900
C1778       C  0.88778449  0.64541646  0.64508585     0.29000
F1779       F  0.90395183  0.65937875  0.67505956    -0.20400
H1780       H  0.93531163  0.61611114  0.63231326     0.17400
H1781       H  0.81147379  0.64861163  0.59177409     0.17400
F1782       F  0.84269406  0.60692557  0.54903537    -0.20400
C1783       C  0.64898855  0.64789369  0.60119039    -0.21800
C1784       C  0.63578447  0.66323382  0.63358948    -0.09800
C1785       C  0.59856633  0.65857698  0.64213834     0.29000
C1786       C  0.57731055  0.63517992  0.62241608    -0.21800
C1787       C  0.59216311  0.61692658  0.59283607    -0.09900
C1788       C  0.62774223  0.62484233  0.58131924     0.29000
F1789       F  0.64269340  0.60959032  0.55147306    -0.20400
H1790       H  0.67588090  0.65329002  0.59075101     0.17400
H1791       H  0.54940945  0.63090503  0.63087774     0.17400
F1792       F  0.58295323  0.67575856  0.67035329    -0.20400
C1793       C  0.84651187  0.86035320  0.89694379    -0.21800
C1794       C  0.85981915  0.84354684  0.86547569    -0.09800
C1795       C  0.89730872  0.84706681  0.85736206     0.29000
C1796       C  0.91901306  0.87038019  0.87679384    -0.21800
C1797       C  0.90425794  0.88966068  0.90566415    -0.09900
C1798       C  0.86812900  0.88328171  0.91646434     0.29000
F1799       F  0.85297277  0.89995646  0.94529645    -0.20400
H1800       H  0.81930771  0.85617172  0.90712091     0.17400
H1801       H  0.94721953  0.87366382  0.86882394     0.17400
F1802       F  0.91276547  0.82877090  0.82987668    -0.20400
C1803       C  0.83873145  0.62823947  0.88552163    -0.21800
C1804       C  0.85137427  0.64320461  0.85279030    -0.09800
C1805       C  0.88816343  0.63752549  0.84288569     0.29000
C1806       C  0.91000696  0.61499654  0.86293835    -0.21800
C1807       C  0.89644368  0.59861790  0.89426559    -0.09900
C1808       C  0.86078466  0.60624802  0.90591090     0.29000
F1809       F  0.84689804  0.59240848  0.93701333    -0.20400
H1810       H  0.81196229  0.63382810  0.89621124     0.17400
H1811       H  0.93770537  0.61057875  0.85391616     0.17400
F1812       F  0.90328642  0.65375055  0.81378768    -0.20400
C1813       C  0.58650334  0.88058694  0.87787019    -0.21800
C1814       C  0.60098563  0.89355615  0.91077227    -0.09800
C1815       C  0.63508550  0.88139508  0.92269016     0.29000
C1816       C  0.65569144  0.85996293  0.90014904    -0.21800
C1817       C  0.64306973  0.85014514  0.86509182    -0.09900
C1818       C  0.60685488  0.85861901  0.85566491     0.28600
F1819       F  0.59108522  0.84610998  0.82474654    -0.20400
H1820       H  0.55951746  0.88800314  0.86881225     0.17400
H1821       H  0.68155603  0.85109792  0.91062170     0.17400
F1822       F  0.64905045  0.89028703  0.95581553    -0.20400
C1823       C  0.89344582  0.86949544  0.66076469    -0.21800
C1824       C  0.86176828  0.85347730  0.64701747    -0.09800
C1825       C  0.85350501  0.85784851  0.60942727     0.29000
C1826       C  0.87381135  0.88022159  0.58773679    -0.21800
C1827       C  0.90356455  0.89815611  0.60244671    -0.09900
C1828       C  0.91402056  0.89154524  0.63888737     0.29000
F1829       F  0.94380488  0.90676571  0.65378836    -0.20400
H1830       H  0.90304486  0.86507374  0.68832841     0.17400
H1831       H  0.86573691  0.88374155  0.55942199     0.17400
F1832       F  0.82509310  0.84114662  0.59367520    -0.20400
loop_ 
_geom_bond_atom_site_label_1 
_geom_bond_atom_site_label_2 
_geom_bond_distance 
_geom_bond_site_symmetry_2 
_ccdc_geom_bond_type 
C1           N19   1.353       .  A
C1           C38   1.462       .  S
C1          C224   1.485       .  S
N2           N19   1.326       .  A
N2           N24   1.319       .  A
N2         Co497   2.091       .  S
C3           N28   1.344       .  A
C3           C41   1.467       .  S
C3           H48   1.081       .  S
H4           C45   1.081       .  S
C5           N29   1.342       .  A
C5            C9   1.467       .  S
C5           H34   1.080       .  S
Co6          N22   2.084   1_565  S
Co6         N711   2.082       .  S
Co6         N472   2.085       .  S
Co6         N275   2.086   1_565  S
Co6       Cl1195   2.440   1_565  S
N7           C45   1.344       .  A
N7           N14   1.318       .  A
N7         Co924   2.085       .  S
Co8          N11   2.089       .  S
Co8         N923   2.085   1_455  S
Co8        N1402   2.095   1_455  S
Co8         N473   2.086       .  S
Co8        Cl737   2.458   1_455  S
C9           N47   1.353       .  A
C9          C211   1.488       .  S
N10          N17   1.319       .  A
N10          N40   1.321       .  A
N10         Co43   2.077       .  S
N11          N29   1.319       .  A
N11          N47   1.325       .  A
N12          C41   1.350       .  A
N12          N22   1.323       .  A
H13          C38   1.081       .  S
N14          N35   1.322       .  A
N14        Co464   2.085       .  S
N15          N33   1.319       .  A
N15          N20   1.324       .  A
N15        Co466   2.086   1_545  S
C16          N20   1.351       .  A
C16          C44   1.461       .  S
C16         C151   1.480       .  S
N17          C32   1.343       .  A
N17       Co1413   2.083   1_455  S
C18          N46   1.340       .  A
C18          C21   1.467       .  S
C18          H52   1.080       .  S
C21          N42   1.353       .  A
C21         C171   1.488       .  S
N22          N28   1.320       .  A
N23          C49   1.343       .  A
N23          N25   1.320       .  A
N23        Co955   2.092   1_455  S
N24          C38   1.339       .  A
N24        Co693   2.082   1_554  S
N25          N53   1.324       .  A
N25        Co501   2.086       .  S
H26          C49   1.081       .  S
H27          C44   1.081       .  S
N28       Co1382   2.095   1_545  S
N29        Co272   2.090       .  S
N30          N42   1.325       .  A
N30          N46   1.318       .  A
N30         Co39   2.086       .  S
C31          N35   1.350       .  A
C31          C45   1.465       .  S
C31         C194   1.485       .  S
C32          C51   1.463       .  S
C32          H36   1.081       .  S
N33          C44   1.341       .  A
N33        Co730   2.080       .  S
C37          N53   1.351       .  A
C37          C49   1.465       .  S
C37         C184   1.485       .  S
Co39        N460   2.091   1_545  S
Co39       N1391   2.083   1_545  S
Co39        N939   2.092       .  S
Co39       Cl966   2.459       .  S
N40          C51   1.348       .  A
C41         C204   1.486       .  S
Co43        N483   2.086       .  S
Co43        N258   2.090   1_554  S
Co43        N720   2.080   1_554  S
Co43       Cl508   2.443   1_455  S
N46        Co235   2.086   1_544  S
Cl50      Co1151   2.440   1_544  S
Cl50       Co695   2.458   1_644  S
Cl50       Co955   2.459       .  S
Cl50       Co501   2.443   1_655  S
C51         C164   1.477       .  S
C54          C55   1.554       .  S
C54          C60   1.557       .  S
C54          C58   1.549       .  S
C54         C154   1.533       .  S
C55          H62   1.084       .  S
C55          C56   1.368       .  D
C56          C57   1.538       .  S
C56         C109   1.520       .  S
C57          C61   1.537       .  S
C57          C59   1.538       .  S
C57          H63   1.047       .  S
C58          H64   1.085       .  S
C58          C59   1.368       .  D
C59          C71   1.514       .  S
C60          H65   1.077       .  S
C60          C61   1.363       .  D
C61          C92   1.515       .  S
C66          C67   1.556       .  S
C66          C72   1.555       .  S
C66          C70   1.545       .  S
C66         C214   1.534       .  S
C67          H74   1.084       .  S
C67          C68   1.369       .  D
C68          C69   1.537       .  S
C68          C85   1.517       .  S
C69          C73   1.534       .  S
C69          C71   1.539       .  S
C69          H75   1.049       .  S
C70          H76   1.085       .  S
C70          C71   1.367       .  D
C72          H77   1.081       .  S
C72          C73   1.367       .  D
C73         C140   1.516       .  S
C78          C79   1.557       .  S
C78          C84   1.552       .  S
C78          C82   1.547       .  S
C78         C161   1.528       .  S
C79          H86   1.079       .  S
C79          C80   1.363       .  D
C80          C81   1.538       .  S
C80         C131   1.517       .  S
C81          C85   1.540       .  S
C81          C83   1.542       .  S
C81          H87   1.048       .  S
C82          H88   1.085       .  S
C82          C83   1.365       .  D
C83          C95   1.516       .  S
C84          H89   1.084       .  S
C84          C85   1.367       .  D
C90          C91   1.553       .  S
C90          C96   1.554       .  S
C90          C94   1.550       .  S
C90         C181   1.537       .  S
C91          H98   1.084       .  S
C91          C92   1.369       .  D
C92          C93   1.534       .  S
C93          C97   1.532       .  S
C93          C95   1.536       .  S
C93          H99   1.048       .  S
C94         H100   1.084       .  S
C94          C95   1.372       .  D
C96         H101   1.079       .  S
C96          C97   1.363       .  D
C97         C116   1.511       .  S
C102        C103   1.553       .  S
C102        C108   1.559       .  S
C102        C106   1.549       .  S
C102        C201   1.534       .  S
C103        H110   1.084       .  S
C103        C104   1.366       .  D
C104        C105   1.538       .  S
C104        C121   1.517       .  S
C105        C109   1.539       .  S
C105        C107   1.542       .  S
C105        H111   1.048       .  S
C106        H112   1.085       .  S
C106        C107   1.367       .  D
C107        C143   1.519       .  S
C108        H113   1.082       .  S
C108        C109   1.368       .  D
C114        C115   1.552       .  S
C114        C120   1.554       .  S
C114        C118   1.550       .  S
C114        C174   1.535       .  S
C115        H122   1.080       .  S
C115        C116   1.363       .  D
C116        C117   1.534       .  S
C117        C121   1.538       .  S
C117        C119   1.540       .  S
C117        H123   1.049       .  S
C118        H124   1.085       .  S
C118        C119   1.370       .  D
C119        C128   1.518       .  S
C120        H125   1.084       .  S
C120        C121   1.368       .  D
C126        C127   1.550       .  S
C126        C132   1.558       .  S
C126        C130   1.553       .  S
C126        C221   1.536       .  S
C127        H134   1.085       .  S
C127        C128   1.369       .  D
C128        C129   1.539       .  S
C129        C133   1.536       .  S
C129        C131   1.534       .  S
C129        H135   1.047       .  S
C130        H136   1.084       .  S
C130        C131   1.368       .  D
C132        H137   1.080       .  S
C132        C133   1.367       .  D
C133        C145   1.516       .  S
C138        C139   1.556       .  S
C138        C144   1.552       .  S
C138        C142   1.552       .  S
C138        C191   1.537       .  S
C139        H146   1.078       .  S
C139        C140   1.362       .  D
C140        C141   1.536       .  S
C141        C145   1.539       .  S
C141        C143   1.538       .  S
C141        H147   1.049       .  S
C142        H148   1.085       .  S
C142        C143   1.372       .  D
C144        H149   1.084       .  S
C144        C145   1.367       .  D
C150        H157   1.082       .  S
C150        C151   1.404       .  A
C150        C155   1.400       .  A
C151        C152   1.404       .  A
C152        C153   1.395       .  A
C152        F159   1.358       .  S
C153        H158   1.075       .  S
C153        C154   1.412       .  A
C154        C155   1.412       .  A
C155        F156   1.358       .  S
C160        H167   1.077       .  S
C160        C161   1.409       .  A
C160        C165   1.392       .  A
C161        C162   1.413       .  A
C162        C163   1.400       .  A
C162        F169   1.358       .  S
C163        H168   1.083       .  S
C163        C164   1.403       .  A
C164        C165   1.405       .  A
C165        F166   1.358       .  S
C170        H177   1.083       .  S
C170        C171   1.406       .  A
C170        C175   1.401       .  A
C171        C172   1.407       .  A
C172        C173   1.397       .  A
C172        F179   1.355       .  S
C173        H178   1.079       .  S
C173        C174   1.411       .  A
C174        C175   1.411       .  A
C175        F176   1.357       .  S
C180        H187   1.079       .  S
C180        C181   1.411       .  A
C180        C185   1.396       .  A
C181        C182   1.412       .  A
C182        C183   1.403       .  A
C182        F189   1.357       .  S
C183        H188   1.082       .  S
C183        C184   1.405       .  A
C184        C185   1.406       .  A
C185        F186   1.358       .  S
C190        H197   1.077       .  S
C190        C191   1.411       .  A
C190        C195   1.394       .  A
C191        C192   1.413       .  A
C192        C193   1.404       .  A
C192        F199   1.357       .  S
C193        H198   1.082       .  S
C193        C194   1.405       .  A
C194        C195   1.405       .  A
C195        F196   1.358       .  S
C200        H207   1.079       .  S
C200        C201   1.409       .  A
C200        C205   1.399       .  A
C201        C202   1.415       .  A
C202        C203   1.401       .  A
C202        F209   1.357       .  S
C203        H208   1.082       .  S
C203        C204   1.403       .  A
C204        C205   1.408       .  A
C205        F206   1.357       .  S
C210        H217   1.083       .  S
C210        C211   1.405       .  A
C210        C215   1.400       .  A
C211        C212   1.408       .  A
C212        C213   1.399       .  A
C212        F219   1.355       .  S
C213        H218   1.080       .  S
C213        C214   1.411       .  A
C214        C215   1.412       .  A
C215        F216   1.357       .  S
C220        H227   1.078       .  S
C220        C221   1.412       .  A
C220        C225   1.400       .  A
C221        C222   1.413       .  A
C222        C223   1.399       .  A
C222        F229   1.358       .  S
C223        H228   1.082       .  S
C223        C224   1.404       .  A
C224        C225   1.406       .  A
C225        F226   1.357       .  S
C230        N248   1.353       .  A
C230        C267   1.462       .  S
C230        C453   1.485       .  S
N231        N248   1.326       .  A
N231        N253   1.319       .  A
N231       Co726   2.091       .  S
C232        N257   1.344       .  A
C232        C270   1.467       .  S
C232        H277   1.081       .  S
H233        C274   1.081       .  S
C234        N258   1.342       .  A
C234        C238   1.467       .  S
C234        H263   1.080       .  S
Co235       N482   2.082   1_556  S
Co235       N701   2.085       .  S
Co235       N251   2.084   1_565  S
Co235      Cl966   2.440   1_566  S
N236        C274   1.344       .  A
N236        N243   1.318       .  A
N236      Co1153   2.085       .  S
Co237      N1152   2.085   1_455  S
Co237       N240   2.089       .  S
Co237      N1631   2.095   1_455  S
Co237       N702   2.086       .  S
Co237      Cl508   2.458   1_456  S
C238        N276   1.353       .  A
C238        C440   1.488       .  S
N239        N246   1.319       .  A
N239        N269   1.321       .  A
N239       Co272   2.077       .  S
N240        N258   1.319       .  A
N240        N276   1.325       .  A
N241        C270   1.350       .  A
N241        N251   1.323       .  A
H242        C267   1.081       .  S
N243        N264   1.322       .  A
N243       Co693   2.085       .  S
N244        N262   1.319       .  A
N244        N249   1.324       .  A
N244       Co695   2.086   1_545  S
C245        N249   1.351       .  A
C245        C273   1.461       .  S
C245        C380   1.480       .  S
N246        C261   1.343       .  A
N246      Co1642   2.083   1_455  S
C247        N275   1.340       .  A
C247        C250   1.467       .  S
C247        H281   1.080       .  S
C250        N271   1.353       .  A
C250        C400   1.488       .  S
N251        N257   1.320       .  A
N252        C278   1.343       .  A
N252        N254   1.320       .  A
N252      Co1184   2.092   1_455  S
N253        C267   1.339       .  A
N253       Co464   2.082       .  S
N254        N282   1.324       .  A
N254       Co730   2.086       .  S
H255        C278   1.081       .  S
H256        C273   1.081       .  S
N257      Co1611   2.095   1_545  S
N259        N271   1.325       .  A
N259        N275   1.318       .  A
N259       Co268   2.086       .  S
C260        N264   1.350       .  A
C260        C274   1.465       .  S
C260        C423   1.485       .  S
C261        C280   1.463       .  S
C261        H265   1.081       .  S
N262        C273   1.341       .  A
N262       Co501   2.080   1_556  S
C266        N282   1.351       .  A
C266        C278   1.465       .  S
C266        C413   1.485       .  S
Co268       N689   2.091   1_545  S
Co268      N1620   2.083   1_545  S
Co268      N1168   2.092       .  S
Co268     Cl1195   2.459       .  S
N269        C280   1.348       .  A
C270        C433   1.486       .  S
Co272       N712   2.086       .  S
Co272       N491   2.080       .  S
Co272      Cl737   2.443   1_455  S
Cl279      Co922   2.440   1_545  S
Cl279      Co466   2.458   1_645  S
Cl279     Co1184   2.459       .  S
Cl279      Co730   2.443   1_655  S
C280        C393   1.477       .  S
C283        C284   1.554       .  S
C283        C289   1.557       .  S
C283        C287   1.549       .  S
C283        C383   1.533       .  S
C284        H291   1.084       .  S
C284        C285   1.368       .  D
C285        C286   1.538       .  S
C285        C338   1.520       .  S
C286        C290   1.537       .  S
C286        C288   1.538       .  S
C286        H292   1.047       .  S
C287        H293   1.085       .  S
C287        C288   1.368       .  D
C288        C300   1.514       .  S
C289        H294   1.077       .  S
C289        C290   1.363       .  D
C290        C321   1.515       .  S
C295        C296   1.556       .  S
C295        C301   1.555       .  S
C295        C299   1.545       .  S
C295        C443   1.534       .  S
C296        H303   1.084       .  S
C296        C297   1.369       .  D
C297        C298   1.537       .  S
C297        C314   1.517       .  S
C298        C302   1.534       .  S
C298        C300   1.539       .  S
C298        H304   1.049       .  S
C299        H305   1.085       .  S
C299        C300   1.367       .  D
C301        H306   1.081       .  S
C301        C302   1.367       .  D
C302        C369   1.516       .  S
C307        C308   1.557       .  S
C307        C313   1.552       .  S
C307        C311   1.547       .  S
C307        C390   1.528       .  S
C308        H315   1.079       .  S
C308        C309   1.363       .  D
C309        C310   1.538       .  S
C309        C360   1.517       .  S
C310        C314   1.540       .  S
C310        C312   1.542       .  S
C310        H316   1.048       .  S
C311        H317   1.085       .  S
C311        C312   1.365       .  D
C312        C324   1.516       .  S
C313        H318   1.084       .  S
C313        C314   1.367       .  D
C319        C320   1.553       .  S
C319        C325   1.554       .  S
C319        C323   1.550       .  S
C319        C410   1.537       .  S
C320        H327   1.084       .  S
C320        C321   1.369       .  D
C321        C322   1.534       .  S
C322        C326   1.532       .  S
C322        C324   1.536       .  S
C322        H328   1.048       .  S
C323        H329   1.084       .  S
C323        C324   1.372       .  D
C325        H330   1.079       .  S
C325        C326   1.363       .  D
C326        C345   1.511       .  S
C331        C332   1.553       .  S
C331        C337   1.559       .  S
C331        C335   1.549       .  S
C331        C430   1.534       .  S
C332        H339   1.084       .  S
C332        C333   1.366       .  D
C333        C334   1.538       .  S
C333        C350   1.517       .  S
C334        C338   1.539       .  S
C334        C336   1.542       .  S
C334        H340   1.048       .  S
C335        H341   1.085       .  S
C335        C336   1.367       .  D
C336        C372   1.519       .  S
C337        H342   1.082       .  S
C337        C338   1.368       .  D
C343        C344   1.552       .  S
C343        C349   1.554       .  S
C343        C347   1.550       .  S
C343        C403   1.535       .  S
C344        H351   1.080       .  S
C344        C345   1.363       .  D
C345        C346   1.534       .  S
C346        C350   1.538       .  S
C346        C348   1.540       .  S
C346        H352   1.049       .  S
C347        H353   1.085       .  S
C347        C348   1.370       .  D
C348        C357   1.518       .  S
C349        H354   1.084       .  S
C349        C350   1.368       .  D
C355        C356   1.550       .  S
C355        C361   1.558       .  S
C355        C359   1.553       .  S
C355        C450   1.536       .  S
C356        H363   1.085       .  S
C356        C357   1.369       .  D
C357        C358   1.539       .  S
C358        C362   1.536       .  S
C358        C360   1.534       .  S
C358        H364   1.047       .  S
C359        H365   1.084       .  S
C359        C360   1.368       .  D
C361        H366   1.080       .  S
C361        C362   1.367       .  D
C362        C374   1.516       .  S
C367        C368   1.556       .  S
C367        C373   1.552       .  S
C367        C371   1.552       .  S
C367        C420   1.537       .  S
C368        H375   1.078       .  S
C368        C369   1.362       .  D
C369        C370   1.536       .  S
C370        C374   1.539       .  S
C370        C372   1.538       .  S
C370        H376   1.049       .  S
C371        H377   1.085       .  S
C371        C372   1.372       .  D
C373        H378   1.084       .  S
C373        C374   1.367       .  D
C379        H386   1.082       .  S
C379        C380   1.404       .  A
C379        C384   1.400       .  A
C380        C381   1.404       .  A
C381        C382   1.395       .  A
C381        F388   1.358       .  S
C382        H387   1.075       .  S
C382        C383   1.412       .  A
C383        C384   1.412       .  A
C384        F385   1.358       .  S
C389        H396   1.077       .  S
C389        C390   1.409       .  A
C389        C394   1.392       .  A
C390        C391   1.413       .  A
C391        C392   1.400       .  A
C391        F398   1.358       .  S
C392        H397   1.083       .  S
C392        C393   1.403       .  A
C393        C394   1.405       .  A
C394        F395   1.358       .  S
C399        H406   1.083       .  S
C399        C400   1.406       .  A
C399        C404   1.401       .  A
C400        C401   1.407       .  A
C401        C402   1.397       .  A
C401        F408   1.355       .  S
C402        H407   1.079       .  S
C402        C403   1.411       .  A
C403        C404   1.411       .  A
C404        F405   1.357       .  S
C409        H416   1.079       .  S
C409        C410   1.411       .  A
C409        C414   1.396       .  A
C410        C411   1.412       .  A
C411        C412   1.403       .  A
C411        F418   1.357       .  S
C412        H417   1.082       .  S
C412        C413   1.405       .  A
C413        C414   1.406       .  A
C414        F415   1.358       .  S
C419        H426   1.077       .  S
C419        C420   1.411       .  A
C419        C424   1.394       .  A
C420        C421   1.413       .  A
C421        C422   1.404       .  A
C421        F428   1.357       .  S
C422        H427   1.082       .  S
C422        C423   1.405       .  A
C423        C424   1.405       .  A
C424        F425   1.358       .  S
C429        H436   1.079       .  S
C429        C430   1.409       .  A
C429        C434   1.399       .  A
C430        C431   1.415       .  A
C431        C432   1.401       .  A
C431        F438   1.357       .  S
C432        H437   1.082       .  S
C432        C433   1.403       .  A
C433        C434   1.408       .  A
C434        F435   1.357       .  S
C439        H446   1.083       .  S
C439        C440   1.405       .  A
C439        C444   1.400       .  A
C440        C441   1.408       .  A
C441        C442   1.399       .  A
C441        F448   1.355       .  S
C442        H447   1.080       .  S
C442        C443   1.411       .  A
C443        C444   1.412       .  A
C444        F445   1.357       .  S
C449        H456   1.078       .  S
C449        C450   1.412       .  A
C449        C454   1.400       .  A
C450        C451   1.413       .  A
C451        C452   1.399       .  A
C451        F458   1.358       .  S
C452        H457   1.082       .  S
C452        C453   1.404       .  A
C453        C454   1.406       .  A
C454        F455   1.357       .  S
C459        N477   1.353       .  A
C459        C496   1.462       .  S
C459        C682   1.485       .  S
N460        N477   1.326       .  A
N460        N482   1.319       .  A
C461        N486   1.344       .  A
C461        C499   1.467       .  S
C461        H506   1.081       .  S
H462        C503   1.081       .  S
C463        N487   1.342       .  A
C463        C467   1.467       .  S
C463        H492   1.080       .  S
Co464       N733   2.086       .  S
Co464       N480   2.084       .  S
Co464     Cl1653   2.440       .  S
N465        C503   1.344       .  A
N465        N472   1.318       .  A
N465      Co1382   2.085       .  S
Co466      N1381   2.085   1_455  S
Co466       N469   2.089       .  S
Co466       N944   2.095   1_465  S
C467        N505   1.353       .  A
C467        C669   1.488       .  S
N468        N475   1.319       .  A
N468        N498   1.321       .  A
N468       Co501   2.077   1_565  S
N469        N487   1.319       .  A
N469        N505   1.325       .  A
N470        C499   1.350       .  A
N470        N480   1.323       .  A
H471        C496   1.081       .  S
N472        N493   1.322       .  A
N473        N491   1.319       .  A
N473        N478   1.324       .  A
C474        N478   1.351       .  A
C474        C502   1.461       .  S
C474        C609   1.480       .  S
N475        C490   1.343       .  A
N475       Co955   2.083   1_465  S
C476        N504   1.340       .  A
C476        C479   1.467       .  S
C476        H510   1.080       .  S
C479        N500   1.353       .  A
C479        C629   1.488       .  S
N480        N486   1.320       .  A
N481        C507   1.343       .  A
N481        N483   1.320       .  A
N481      Co1413   2.092   1_455  S
N482        C496   1.339       .  A
N483        N511   1.324       .  A
H484        C507   1.081       .  S
H485        C502   1.081       .  S
N486       Co924   2.095       .  S
N487       Co730   2.090   1_565  S
N488        N500   1.325       .  A
N488        N504   1.318       .  A
N488       Co497   2.086       .  S
C489        N493   1.350       .  A
C489        C503   1.465       .  S
C489        C652   1.485       .  S
C490        C509   1.463       .  S
C490        H494   1.081       .  S
N491        C502   1.341       .  A
C495        N511   1.351       .  A
C495        C507   1.465       .  S
C495        C642   1.485       .  S
Co497       N933   2.083       .  S
Co497      N1397   2.092       .  S
Co497     Cl1424   2.459       .  S
N498        C509   1.348       .  A
C499        C662   1.486       .  S
Co501       N716   2.090   1_544  S
N504       Co693   2.086   1_554  S
Cl508     Co1609   2.440   1_554  S
Cl508     Co1413   2.459       .  S
C509        C622   1.477       .  S
C512        C513   1.554       .  S
C512        C518   1.557       .  S
C512        C516   1.549       .  S
C512        C612   1.533       .  S
C513        H520   1.084       .  S
C513        C514   1.368       .  D
C514        C515   1.538       .  S
C514        C567   1.520       .  S
C515        C519   1.537       .  S
C515        C517   1.538       .  S
C515        H521   1.049       .  S
C516        H522   1.085       .  S
C516        C517   1.368       .  D
C517        C529   1.514       .  S
C518        H523   1.077       .  S
C518        C519   1.363       .  D
C519        C550   1.515       .  S
C524        C525   1.556       .  S
C524        C530   1.555       .  S
C524        C528   1.545       .  S
C524        C672   1.534       .  S
C525        H532   1.084       .  S
C525        C526   1.369       .  D
C526        C527   1.537       .  S
C526        C543   1.517       .  S
C527        C531   1.534       .  S
C527        C529   1.539       .  S
C527        H533   1.050       .  S
C528        H534   1.085       .  S
C528        C529   1.367       .  D
C530        H535   1.081       .  S
C530        C531   1.367       .  D
C531        C598   1.516       .  S
C536        C537   1.557       .  S
C536        C542   1.552       .  S
C536        C540   1.547       .  S
C536        C619   1.528       .  S
C537        H544   1.079       .  S
C537        C538   1.363       .  D
C538        C539   1.538       .  S
C538        C589   1.517       .  S
C539        C543   1.540       .  S
C539        C541   1.542       .  S
C539        H545   1.050       .  S
C540        H546   1.085       .  S
C540        C541   1.365       .  D
C541        C553   1.516       .  S
C542        H547   1.084       .  S
C542        C543   1.367       .  D
C548        C549   1.553       .  S
C548        C554   1.554       .  S
C548        C552   1.550       .  S
C548        C639   1.537       .  S
C549        H556   1.084       .  S
C549        C550   1.369       .  D
C550        C551   1.534       .  S
C551        C555   1.531       .  S
C551        C553   1.536       .  S
C551        H557   1.050       .  S
C552        H558   1.084       .  S
C552        C553   1.372       .  D
C554        H559   1.079       .  S
C554        C555   1.363       .  D
C555        C574   1.511       .  S
C560        C561   1.553       .  S
C560        C566   1.559       .  S
C560        C564   1.549       .  S
C560        C659   1.534       .  S
C561        H568   1.084       .  S
C561        C562   1.366       .  D
C562        C563   1.538       .  S
C562        C579   1.517       .  S
C563        C567   1.539       .  S
C563        C565   1.542       .  S
C563        H569   1.049       .  S
C564        H570   1.085       .  S
C564        C565   1.367       .  D
C565        C601   1.519       .  S
C566        H571   1.082       .  S
C566        C567   1.368       .  D
C572        C573   1.552       .  S
C572        C578   1.554       .  S
C572        C576   1.550       .  S
C572        C632   1.535       .  S
C573        H580   1.080       .  S
C573        C574   1.363       .  D
C574        C575   1.534       .  S
C575        C579   1.538       .  S
C575        C577   1.540       .  S
C575        H581   1.051       .  S
C576        H582   1.085       .  S
C576        C577   1.370       .  D
C577        C586   1.518       .  S
C578        H583   1.084       .  S
C578        C579   1.368       .  D
C584        C585   1.550       .  S
C584        C590   1.558       .  S
C584        C588   1.553       .  S
C584        C679   1.536       .  S
C585        H592   1.085       .  S
C585        C586   1.369       .  D
C586        C587   1.539       .  S
C587        C591   1.536       .  S
C587        C589   1.534       .  S
C587        H593   1.049       .  S
C588        H594   1.084       .  S
C588        C589   1.368       .  D
C590        H595   1.080       .  S
C590        C591   1.367       .  D
C591        C603   1.516       .  S
C596        C597   1.556       .  S
C596        C602   1.552       .  S
C596        C600   1.552       .  S
C596        C649   1.537       .  S
C597        H604   1.078       .  S
C597        C598   1.362       .  D
C598        C599   1.535       .  S
C599        C603   1.539       .  S
C599        C601   1.538       .  S
C599        H605   1.050       .  S
C600        H606   1.084       .  S
C600        C601   1.372       .  D
C602        H607   1.084       .  S
C602        C603   1.367       .  D
C608        H615   1.082       .  S
C608        C609   1.404       .  A
C608        C613   1.400       .  A
C609        C610   1.404       .  A
C610        C611   1.395       .  A
C610        F617   1.358       .  S
C611        H616   1.075       .  S
C611        C612   1.412       .  A
C612        C613   1.412       .  A
C613        F614   1.358       .  S
C618        H625   1.077       .  S
C618        C619   1.409       .  A
C618        C623   1.392       .  A
C619        C620   1.413       .  A
C620        C621   1.400       .  A
C620        F627   1.358       .  S
C621        H626   1.083       .  S
C621        C622   1.403       .  A
C622        C623   1.405       .  A
C623        F624   1.358       .  S
C628        H635   1.083       .  S
C628        C629   1.406       .  A
C628        C633   1.401       .  A
C629        C630   1.407       .  A
C630        C631   1.397       .  A
C630        F637   1.355       .  S
C631        H636   1.079       .  S
C631        C632   1.411       .  A
C632        C633   1.411       .  A
C633        F634   1.357       .  S
C638        H645   1.079       .  S
C638        C639   1.411       .  A
C638        C643   1.396       .  A
C639        C640   1.412       .  A
C640        C641   1.403       .  A
C640        F647   1.357       .  S
C641        H646   1.082       .  S
C641        C642   1.405       .  A
C642        C643   1.406       .  A
C643        F644   1.358       .  S
C648        H655   1.077       .  S
C648        C649   1.411       .  A
C648        C653   1.394       .  A
C649        C650   1.413       .  A
C650        C651   1.404       .  A
C650        F657   1.357       .  S
C651        H656   1.082       .  S
C651        C652   1.405       .  A
C652        C653   1.405       .  A
C653        F654   1.358       .  S
C658        H665   1.079       .  S
C658        C659   1.409       .  A
C658        C663   1.399       .  A
C659        C660   1.415       .  A
C660        C661   1.401       .  A
C660        F667   1.357       .  S
C661        H666   1.082       .  S
C661        C662   1.403       .  A
C662        C663   1.408       .  A
C663        F664   1.357       .  S
C668        H675   1.083       .  S
C668        C669   1.405       .  A
C668        C673   1.400       .  A
C669        C670   1.408       .  A
C670        C671   1.399       .  A
C670        F677   1.355       .  S
C671        H676   1.080       .  S
C671        C672   1.411       .  A
C672        C673   1.412       .  A
C673        F674   1.357       .  S
C678        H685   1.078       .  S
C678        C679   1.412       .  A
C678        C683   1.400       .  A
C679        C680   1.413       .  A
C680        C681   1.399       .  A
C680        F687   1.358       .  S
C681        H686   1.082       .  S
C681        C682   1.404       .  A
C682        C683   1.406       .  A
C683        F684   1.357       .  S
C688        N706   1.353       .  A
C688        C725   1.462       .  S
C688        C911   1.485       .  S
N689        N706   1.326       .  A
N689        N711   1.319       .  A
C690        N715   1.344       .  A
C690        C728   1.467       .  S
C690        H735   1.081       .  S
H691        C732   1.081       .  S
C692        N716   1.342       .  A
C692        C696   1.467       .  S
C692        H721   1.080       .  S
Co693       N709   2.084       .  S
Co693     Cl1424   2.440   1_556  S
N694        C732   1.344       .  A
N694        N701   1.318       .  A
N694      Co1611   2.085       .  S
Co695      N1610   2.085   1_455  S
Co695       N698   2.089       .  S
Co695      N1173   2.094   1_465  S
C696        N734   1.353       .  A
C696        C898   1.488       .  S
N697        N704   1.319       .  A
N697        N727   1.321       .  A
N697       Co730   2.077   1_565  S
N698        N716   1.319       .  A
N698        N734   1.325       .  A
N699        C728   1.350       .  A
N699        N709   1.323       .  A
H700        C725   1.081       .  S
N701        N722   1.322       .  A
N702        N720   1.319       .  A
N702        N707   1.324       .  A
C703        N707   1.351       .  A
C703        C731   1.461       .  S
C703        C838   1.480       .  S
N704        C719   1.343       .  A
N704      Co1184   2.083   1_465  S
C705        N733   1.340       .  A
C705        C708   1.467       .  S
C705        H739   1.080       .  S
C708        N729   1.353       .  A
C708        C858   1.488       .  S
N709        N715   1.320       .  A
N710        C736   1.343       .  A
N710        N712   1.320       .  A
N710      Co1642   2.092   1_455  S
N711        C725   1.339       .  A
N712        N740   1.324       .  A
H713        C736   1.081       .  S
H714        C731   1.081       .  S
N715      Co1153   2.095       .  S
N717        N729   1.325       .  A
N717        N733   1.318       .  A
N717       Co726   2.086       .  S
C718        N722   1.350       .  A
C718        C732   1.465       .  S
C718        C881   1.485       .  S
C719        C738   1.463       .  S
C719        H723   1.081       .  S
N720        C731   1.341       .  A
C724        N740   1.351       .  A
C724        C736   1.465       .  S
C724        C871   1.485       .  S
Co726      N1162   2.083       .  S
Co726      N1626   2.092       .  S
Co726     Cl1653   2.459       .  S
N727        C738   1.348       .  A
C728        C891   1.486       .  S
Cl737     Co1380   2.440       .  S
Cl737     Co1642   2.459       .  S
C738        C851   1.477       .  S
C741        C742   1.554       .  S
C741        C747   1.557       .  S
C741        C745   1.549       .  S
C741        C841   1.533       .  S
C742        H749   1.084       .  S
C742        C743   1.368       .  D
C743        C744   1.538       .  S
C743        C796   1.520       .  S
C744        C748   1.537       .  S
C744        C746   1.538       .  S
C744        H750   1.049       .  S
C745        H751   1.085       .  S
C745        C746   1.368       .  D
C746        C758   1.514       .  S
C747        H752   1.077       .  S
C747        C748   1.363       .  D
C748        C779   1.515       .  S
C753        C754   1.556       .  S
C753        C759   1.555       .  S
C753        C757   1.545       .  S
C753        C901   1.534       .  S
C754        H761   1.084       .  S
C754        C755   1.369       .  D
C755        C756   1.537       .  S
C755        C772   1.517       .  S
C756        C760   1.534       .  S
C756        C758   1.539       .  S
C756        H762   1.050       .  S
C757        H763   1.085       .  S
C757        C758   1.367       .  D
C759        H764   1.081       .  S
C759        C760   1.367       .  D
C760        C827   1.516       .  S
C765        C766   1.557       .  S
C765        C771   1.552       .  S
C765        C769   1.547       .  S
C765        C848   1.528       .  S
C766        H773   1.079       .  S
C766        C767   1.363       .  D
C767        C768   1.538       .  S
C767        C818   1.517       .  S
C768        C772   1.540       .  S
C768        C770   1.542       .  S
C768        H774   1.050       .  S
C769        H775   1.085       .  S
C769        C770   1.365       .  D
C770        C782   1.516       .  S
C771        H776   1.084       .  S
C771        C772   1.367       .  D
C777        C778   1.553       .  S
C777        C783   1.554       .  S
C777        C781   1.550       .  S
C777        C868   1.537       .  S
C778        H785   1.084       .  S
C778        C779   1.369       .  D
C779        C780   1.534       .  S
C780        C784   1.531       .  S
C780        C782   1.536       .  S
C780        H786   1.050       .  S
C781        H787   1.084       .  S
C781        C782   1.372       .  D
C783        H788   1.079       .  S
C783        C784   1.363       .  D
C784        C803   1.511       .  S
C789        C790   1.553       .  S
C789        C795   1.559       .  S
C789        C793   1.549       .  S
C789        C888   1.534       .  S
C790        H797   1.084       .  S
C790        C791   1.366       .  D
C791        C792   1.538       .  S
C791        C808   1.517       .  S
C792        C796   1.539       .  S
C792        C794   1.542       .  S
C792        H798   1.050       .  S
C793        H799   1.085       .  S
C793        C794   1.367       .  D
C794        C830   1.519       .  S
C795        H800   1.082       .  S
C795        C796   1.368       .  D
C801        C802   1.552       .  S
C801        C807   1.554       .  S
C801        C805   1.550       .  S
C801        C861   1.535       .  S
C802        H809   1.080       .  S
C802        C803   1.363       .  D
C803        C804   1.534       .  S
C804        C808   1.538       .  S
C804        C806   1.540       .  S
C804        H810   1.051       .  S
C805        H811   1.085       .  S
C805        C806   1.370       .  D
C806        C815   1.518       .  S
C807        H812   1.084       .  S
C807        C808   1.368       .  D
C813        C814   1.550       .  S
C813        C819   1.558       .  S
C813        C817   1.553       .  S
C813        C908   1.536       .  S
C814        H821   1.085       .  S
C814        C815   1.369       .  D
C815        C816   1.539       .  S
C816        C820   1.536       .  S
C816        C818   1.534       .  S
C816        H822   1.049       .  S
C817        H823   1.084       .  S
C817        C818   1.368       .  D
C819        H824   1.080       .  S
C819        C820   1.367       .  D
C820        C832   1.516       .  S
C825        C826   1.556       .  S
C825        C831   1.552       .  S
C825        C829   1.552       .  S
C825        C878   1.537       .  S
C826        H833   1.078       .  S
C826        C827   1.362       .  D
C827        C828   1.535       .  S
C828        C832   1.539       .  S
C828        C830   1.538       .  S
C828        H834   1.050       .  S
C829        H835   1.084       .  S
C829        C830   1.372       .  D
C831        H836   1.084       .  S
C831        C832   1.367       .  D
C837        H844   1.082       .  S
C837        C838   1.404       .  A
C837        C842   1.400       .  A
C838        C839   1.404       .  A
C839        C840   1.395       .  A
C839        F846   1.358       .  S
C840        H845   1.075       .  S
C840        C841   1.412       .  A
C841        C842   1.412       .  A
C842        F843   1.358       .  S
C847        H854   1.077       .  S
C847        C848   1.409       .  A
C847        C852   1.392       .  A
C848        C849   1.413       .  A
C849        C850   1.400       .  A
C849        F856   1.358       .  S
C850        H855   1.083       .  S
C850        C851   1.403       .  A
C851        C852   1.405       .  A
C852        F853   1.358       .  S
C857        H864   1.083       .  S
C857        C858   1.406       .  A
C857        C862   1.401       .  A
C858        C859   1.407       .  A
C859        C860   1.397       .  A
C859        F866   1.355       .  S
C860        H865   1.079       .  S
C860        C861   1.411       .  A
C861        C862   1.411       .  A
C862        F863   1.357       .  S
C867        H874   1.079       .  S
C867        C868   1.411       .  A
C867        C872   1.396       .  A
C868        C869   1.412       .  A
C869        C870   1.403       .  A
C869        F876   1.357       .  S
C870        H875   1.082       .  S
C870        C871   1.405       .  A
C871        C872   1.406       .  A
C872        F873   1.358       .  S
C877        H884   1.077       .  S
C877        C878   1.411       .  A
C877        C882   1.394       .  A
C878        C879   1.413       .  A
C879        C880   1.404       .  A
C879        F886   1.357       .  S
C880        H885   1.082       .  S
C880        C881   1.405       .  A
C881        C882   1.405       .  A
C882        F883   1.358       .  S
C887        H894   1.079       .  S
C887        C888   1.409       .  A
C887        C892   1.399       .  A
C888        C889   1.415       .  A
C889        C890   1.401       .  A
C889        F896   1.357       .  S
C890        H895   1.082       .  S
C890        C891   1.403       .  A
C891        C892   1.408       .  A
C892        F893   1.357       .  S
C897        H904   1.083       .  S
C897        C898   1.405       .  A
C897        C902   1.400       .  A
C898        C899   1.408       .  A
C899        C900   1.399       .  A
C899        F906   1.355       .  S
C900        H905   1.080       .  S
C900        C901   1.411       .  A
C901        C902   1.412       .  A
C902        F903   1.357       .  S
C907        H914   1.078       .  S
C907        C908   1.412       .  A
C907        C912   1.400       .  A
C908        C909   1.413       .  A
C909        C910   1.399       .  A
C909        F916   1.358       .  S
C910        H915   1.082       .  S
C910        C911   1.404       .  A
C911        C912   1.406       .  A
C912        F913   1.357       .  S
C917        N935   1.353       .  A
C917        C954   1.462       .  S
C917       C1140   1.485       .  S
N918        N935   1.326       .  A
N918        N940   1.319       .  A
N918      Co1413   2.091       .  S
C919        N944   1.344       .  A
C919        C957   1.467       .  S
C919        H964   1.081       .  S
H920        C961   1.081       .  S
C921        N945   1.342       .  A
C921        C925   1.467       .  S
C921        H950   1.080       .  S
Co922      N1627   2.082       .  S
Co922      N1388   2.085       .  S
Co922      N1191   2.086   1_565  S
Co922       N938   2.084   1_565  S
N923        C961   1.344       .  A
N923        N930   1.318       .  A
Co924       N927   2.089       .  S
Co924      N1389   2.086       .  S
Co924     Cl1653   2.458       .  S
C925        N963   1.353       .  A
C925       C1127   1.488       .  S
N926        N933   1.319       .  A
N926        N956   1.321       .  A
N926       Co959   2.077       .  S
N927        N945   1.319       .  A
N927        N963   1.325       .  A
N928        C957   1.350       .  A
N928        N938   1.323       .  A
H929        C954   1.081       .  S
N930        N951   1.322       .  A
N930      Co1380   2.085       .  S
N931        N949   1.319       .  A
N931        N936   1.324       .  A
N931      Co1382   2.086   1_545  S
C932        N936   1.351       .  A
C932        C960   1.461       .  S
C932       C1067   1.480       .  S
N933        C948   1.343       .  A
C934        N962   1.340       .  A
C934        C937   1.467       .  S
C934        H968   1.080       .  S
C937        N958   1.353       .  A
C937       C1087   1.488       .  S
N938        N944   1.320       .  A
N939        C965   1.343       .  A
N939        N941   1.320       .  A
N940        C954   1.339       .  A
N940      Co1609   2.082   1_554  S
N941        N969   1.324       .  A
N941      Co1417   2.086       .  S
H942        C965   1.081       .  S
H943        C960   1.081       .  S
N945      Co1188   2.090       .  S
N946        N958   1.325       .  A
N946        N962   1.318       .  A
N946       Co955   2.086       .  S
C947        N951   1.350       .  A
C947        C961   1.465       .  S
C947       C1110   1.485       .  S
C948        C967   1.463       .  S
C948        H952   1.081       .  S
N949        C960   1.341       .  A
N949      Co1646   2.080       .  S
C953        N969   1.351       .  A
C953        C965   1.465       .  S
C953       C1100   1.485       .  S
Co955      N1376   2.091   1_545  S
N956        C967   1.348       .  A
C957       C1120   1.486       .  S
Co959      N1399   2.086       .  S
Co959      N1174   2.090   1_554  S
Co959      N1636   2.080   1_554  S
Co959     Cl1424   2.443       .  S
N962      Co1151   2.086   1_544  S
Cl966     Co1611   2.458   1_544  S
Cl966     Co1417   2.443       .  S
C967       C1080   1.477       .  S
C970        C971   1.554       .  S
C970        C976   1.557       .  S
C970        C974   1.549       .  S
C970       C1070   1.533       .  S
C971        H978   1.084       .  S
C971        C972   1.368       .  D
C972        C973   1.538       .  S
C972       C1025   1.520       .  S
C973        C977   1.537       .  S
C973        C975   1.538       .  S
C973        H979   1.047       .  S
C974        H980   1.085       .  S
C974        C975   1.368       .  D
C975        C987   1.514       .  S
C976        H981   1.077       .  S
C976        C977   1.363       .  D
C977       C1008   1.515       .  S
C982        C983   1.556       .  S
C982        C988   1.555       .  S
C982        C986   1.545       .  S
C982       C1130   1.534       .  S
C983        H990   1.084       .  S
C983        C984   1.369       .  D
C984        C985   1.537       .  S
C984       C1001   1.517       .  S
C985        C989   1.534       .  S
C985        C987   1.539       .  S
C985        H991   1.049       .  S
C986        H992   1.085       .  S
C986        C987   1.367       .  D
C988        H993   1.081       .  S
C988        C989   1.367       .  D
C989       C1056   1.516       .  S
C994        C995   1.557       .  S
C994       C1000   1.552       .  S
C994        C998   1.547       .  S
C994       C1077   1.528       .  S
C995       H1002   1.079       .  S
C995        C996   1.363       .  D
C996        C997   1.538       .  S
C996       C1047   1.517       .  S
C997       C1001   1.540       .  S
C997        C999   1.542       .  S
C997       H1003   1.048       .  S
C998       H1004   1.085       .  S
C998        C999   1.365       .  D
C999       C1011   1.516       .  S
C1000      H1005   1.084       .  S
C1000      C1001   1.367       .  D
C1006      C1007   1.553       .  S
C1006      C1012   1.554       .  S
C1006      C1010   1.550       .  S
C1006      C1097   1.537       .  S
C1007      H1014   1.084       .  S
C1007      C1008   1.369       .  D
C1008      C1009   1.534       .  S
C1009      C1013   1.532       .  S
C1009      C1011   1.536       .  S
C1009      H1015   1.048       .  S
C1010      H1016   1.084       .  S
C1010      C1011   1.372       .  D
C1012      H1017   1.079       .  S
C1012      C1013   1.363       .  D
C1013      C1032   1.511       .  S
C1018      C1019   1.553       .  S
C1018      C1024   1.559       .  S
C1018      C1022   1.549       .  S
C1018      C1117   1.534       .  S
C1019      H1026   1.084       .  S
C1019      C1020   1.366       .  D
C1020      C1021   1.538       .  S
C1020      C1037   1.517       .  S
C1021      C1025   1.539       .  S
C1021      C1023   1.542       .  S
C1021      H1027   1.048       .  S
C1022      H1028   1.085       .  S
C1022      C1023   1.367       .  D
C1023      C1059   1.519       .  S
C1024      H1029   1.082       .  S
C1024      C1025   1.368       .  D
C1030      C1031   1.552       .  S
C1030      C1036   1.554       .  S
C1030      C1034   1.550       .  S
C1030      C1090   1.535       .  S
C1031      H1038   1.080       .  S
C1031      C1032   1.363       .  D
C1032      C1033   1.534       .  S
C1033      C1037   1.538       .  S
C1033      C1035   1.540       .  S
C1033      H1039   1.049       .  S
C1034      H1040   1.085       .  S
C1034      C1035   1.370       .  D
C1035      C1044   1.518       .  S
C1036      H1041   1.084       .  S
C1036      C1037   1.368       .  D
C1042      C1043   1.550       .  S
C1042      C1048   1.558       .  S
C1042      C1046   1.553       .  S
C1042      C1137   1.536       .  S
C1043      H1050   1.085       .  S
C1043      C1044   1.369       .  D
C1044      C1045   1.539       .  S
C1045      C1049   1.536       .  S
C1045      C1047   1.534       .  S
C1045      H1051   1.047       .  S
C1046      H1052   1.084       .  S
C1046      C1047   1.368       .  D
C1048      H1053   1.080       .  S
C1048      C1049   1.367       .  D
C1049      C1061   1.516       .  S
C1054      C1055   1.556       .  S
C1054      C1060   1.552       .  S
C1054      C1058   1.552       .  S
C1054      C1107   1.537       .  S
C1055      H1062   1.078       .  S
C1055      C1056   1.362       .  D
C1056      C1057   1.536       .  S
C1057      C1061   1.539       .  S
C1057      C1059   1.538       .  S
C1057      H1063   1.049       .  S
C1058      H1064   1.085       .  S
C1058      C1059   1.372       .  D
C1060      H1065   1.084       .  S
C1060      C1061   1.367       .  D
C1066      H1073   1.082       .  S
C1066      C1067   1.404       .  A
C1066      C1071   1.400       .  A
C1067      C1068   1.404       .  A
C1068      C1069   1.395       .  A
C1068      F1075   1.358       .  S
C1069      H1074   1.075       .  S
C1069      C1070   1.412       .  A
C1070      C1071   1.412       .  A
C1071      F1072   1.358       .  S
C1076      H1083   1.077       .  S
C1076      C1077   1.409       .  A
C1076      C1081   1.392       .  A
C1077      C1078   1.413       .  A
C1078      C1079   1.400       .  A
C1078      F1085   1.358       .  S
C1079      H1084   1.083       .  S
C1079      C1080   1.403       .  A
C1080      C1081   1.405       .  A
C1081      F1082   1.358       .  S
C1086      H1093   1.083       .  S
C1086      C1087   1.406       .  A
C1086      C1091   1.401       .  A
C1087      C1088   1.407       .  A
C1088      C1089   1.397       .  A
C1088      F1095   1.355       .  S
C1089      H1094   1.079       .  S
C1089      C1090   1.411       .  A
C1090      C1091   1.411       .  A
C1091      F1092   1.357       .  S
C1096      H1103   1.079       .  S
C1096      C1097   1.411       .  A
C1096      C1101   1.396       .  A
C1097      C1098   1.412       .  A
C1098      C1099   1.403       .  A
C1098      F1105   1.357       .  S
C1099      H1104   1.082       .  S
C1099      C1100   1.405       .  A
C1100      C1101   1.406       .  A
C1101      F1102   1.358       .  S
C1106      H1113   1.077       .  S
C1106      C1107   1.411       .  A
C1106      C1111   1.394       .  A
C1107      C1108   1.413       .  A
C1108      C1109   1.404       .  A
C1108      F1115   1.357       .  S
C1109      H1114   1.082       .  S
C1109      C1110   1.405       .  A
C1110      C1111   1.405       .  A
C1111      F1112   1.358       .  S
C1116      H1123   1.079       .  S
C1116      C1117   1.409       .  A
C1116      C1121   1.399       .  A
C1117      C1118   1.415       .  A
C1118      C1119   1.401       .  A
C1118      F1125   1.357       .  S
C1119      H1124   1.082       .  S
C1119      C1120   1.403       .  A
C1120      C1121   1.408       .  A
C1121      F1122   1.357       .  S
C1126      H1133   1.083       .  S
C1126      C1127   1.405       .  A
C1126      C1131   1.400       .  A
C1127      C1128   1.408       .  A
C1128      C1129   1.399       .  A
C1128      F1135   1.355       .  S
C1129      H1134   1.080       .  S
C1129      C1130   1.411       .  A
C1130      C1131   1.412       .  A
C1131      F1132   1.357       .  S
C1136      H1143   1.078       .  S
C1136      C1137   1.412       .  A
C1136      C1141   1.400       .  A
C1137      C1138   1.413       .  A
C1138      C1139   1.399       .  A
C1138      F1145   1.358       .  S
C1139      H1144   1.082       .  S
C1139      C1140   1.404       .  A
C1140      C1141   1.406       .  A
C1141      F1142   1.357       .  S
C1146      N1164   1.353       .  A
C1146      C1183   1.462       .  S
C1146      C1369   1.485       .  S
N1147      N1164   1.326       .  A
N1147      N1169   1.319       .  A
N1147     Co1642   2.091       .  S
C1148      N1173   1.344       .  A
C1148      C1186   1.467       .  S
C1148      H1193   1.081       .  S
H1149      C1190   1.081       .  S
C1150      N1174   1.342       .  A
C1150      C1154   1.467       .  S
C1150      H1179   1.080       .  S
Co1151     N1398   2.082   1_556  S
Co1151     N1617   2.085       .  S
Co1151     N1167   2.084   1_565  S
N1152      C1190   1.344       .  A
N1152      N1159   1.318       .  A
Co1153     N1156   2.089       .  S
Co1153     N1618   2.086       .  S
Co1153    Cl1424   2.458   1_556  S
C1154      N1192   1.353       .  A
C1154      C1356   1.488       .  S
N1155      N1162   1.319       .  A
N1155      N1185   1.321       .  A
N1155     Co1188   2.077       .  S
N1156      N1174   1.319       .  A
N1156      N1192   1.325       .  A
N1157      C1186   1.350       .  A
N1157      N1167   1.323       .  A
H1158      C1183   1.081       .  S
N1159      N1180   1.322       .  A
N1159     Co1609   2.085       .  S
N1160      N1178   1.319       .  A
N1160      N1165   1.324       .  A
N1160     Co1611   2.086   1_545  S
C1161      N1165   1.351       .  A
C1161      C1189   1.461       .  S
C1161      C1296   1.480       .  S
N1162      C1177   1.343       .  A
C1163      N1191   1.340       .  A
C1163      C1166   1.467       .  S
C1163      H1197   1.080       .  S
C1166      N1187   1.353       .  A
C1166      C1316   1.488       .  S
N1167      N1173   1.320       .  A
N1168      C1194   1.343       .  A
N1168      N1170   1.320       .  A
N1169      C1183   1.339       .  A
N1169     Co1380   2.082       .  S
N1170      N1198   1.324       .  A
N1170     Co1646   2.086       .  S
H1171      C1194   1.081       .  S
H1172      C1189   1.081       .  S
N1175      N1187   1.325       .  A
N1175      N1191   1.318       .  A
N1175     Co1184   2.086       .  S
C1176      N1180   1.350       .  A
C1176      C1190   1.465       .  S
C1176      C1339   1.485       .  S
C1177      C1196   1.463       .  S
C1177      H1181   1.081       .  S
N1178      C1189   1.341       .  A
N1178     Co1417   2.080   1_556  S
C1182      N1198   1.351       .  A
C1182      C1194   1.465       .  S
C1182      C1329   1.485       .  S
Co1184     N1605   2.091   1_545  S
N1185      C1196   1.348       .  A
C1186      C1349   1.486       .  S
Co1188     N1628   2.086       .  S
Co1188     N1407   2.080       .  S
Co1188    Cl1653   2.443       .  S
Cl1195    Co1382   2.458   1_545  S
Cl1195    Co1646   2.443       .  S
C1196      C1309   1.477       .  S
C1199      C1200   1.554       .  S
C1199      C1205   1.557       .  S
C1199      C1203   1.549       .  S
C1199      C1299   1.533       .  S
C1200      H1207   1.084       .  S
C1200      C1201   1.368       .  D
C1201      C1202   1.538       .  S
C1201      C1254   1.520       .  S
C1202      C1206   1.537       .  S
C1202      C1204   1.538       .  S
C1202      H1208   1.047       .  S
C1203      H1209   1.085       .  S
C1203      C1204   1.368       .  D
C1204      C1216   1.514       .  S
C1205      H1210   1.077       .  S
C1205      C1206   1.363       .  D
C1206      C1237   1.515       .  S
C1211      C1212   1.556       .  S
C1211      C1217   1.555       .  S
C1211      C1215   1.545       .  S
C1211      C1359   1.534       .  S
C1212      H1219   1.084       .  S
C1212      C1213   1.369       .  D
C1213      C1214   1.537       .  S
C1213      C1230   1.517       .  S
C1214      C1218   1.534       .  S
C1214      C1216   1.539       .  S
C1214      H1220   1.049       .  S
C1215      H1221   1.085       .  S
C1215      C1216   1.367       .  D
C1217      H1222   1.081       .  S
C1217      C1218   1.367       .  D
C1218      C1285   1.516       .  S
C1223      C1224   1.557       .  S
C1223      C1229   1.552       .  S
C1223      C1227   1.547       .  S
C1223      C1306   1.528       .  S
C1224      H1231   1.079       .  S
C1224      C1225   1.363       .  D
C1225      C1226   1.538       .  S
C1225      C1276   1.517       .  S
C1226      C1230   1.540       .  S
C1226      C1228   1.542       .  S
C1226      H1232   1.048       .  S
C1227      H1233   1.085       .  S
C1227      C1228   1.365       .  D
C1228      C1240   1.516       .  S
C1229      H1234   1.084       .  S
C1229      C1230   1.367       .  D
C1235      C1236   1.553       .  S
C1235      C1241   1.554       .  S
C1235      C1239   1.550       .  S
C1235      C1326   1.537       .  S
C1236      H1243   1.084       .  S
C1236      C1237   1.369       .  D
C1237      C1238   1.534       .  S
C1238      C1242   1.532       .  S
C1238      C1240   1.536       .  S
C1238      H1244   1.048       .  S
C1239      H1245   1.084       .  S
C1239      C1240   1.372       .  D
C1241      H1246   1.079       .  S
C1241      C1242   1.363       .  D
C1242      C1261   1.511       .  S
C1247      C1248   1.553       .  S
C1247      C1253   1.559       .  S
C1247      C1251   1.549       .  S
C1247      C1346   1.534       .  S
C1248      H1255   1.084       .  S
C1248      C1249   1.366       .  D
C1249      C1250   1.538       .  S
C1249      C1266   1.517       .  S
C1250      C1254   1.539       .  S
C1250      C1252   1.542       .  S
C1250      H1256   1.048       .  S
C1251      H1257   1.085       .  S
C1251      C1252   1.367       .  D
C1252      C1288   1.519       .  S
C1253      H1258   1.082       .  S
C1253      C1254   1.368       .  D
C1259      C1260   1.552       .  S
C1259      C1265   1.554       .  S
C1259      C1263   1.550       .  S
C1259      C1319   1.535       .  S
C1260      H1267   1.080       .  S
C1260      C1261   1.363       .  D
C1261      C1262   1.534       .  S
C1262      C1266   1.538       .  S
C1262      C1264   1.540       .  S
C1262      H1268   1.049       .  S
C1263      H1269   1.085       .  S
C1263      C1264   1.370       .  D
C1264      C1273   1.518       .  S
C1265      H1270   1.084       .  S
C1265      C1266   1.368       .  D
C1271      C1272   1.550       .  S
C1271      C1277   1.558       .  S
C1271      C1275   1.553       .  S
C1271      C1366   1.536       .  S
C1272      H1279   1.085       .  S
C1272      C1273   1.369       .  D
C1273      C1274   1.539       .  S
C1274      C1278   1.536       .  S
C1274      C1276   1.534       .  S
C1274      H1280   1.047       .  S
C1275      H1281   1.084       .  S
C1275      C1276   1.368       .  D
C1277      H1282   1.080       .  S
C1277      C1278   1.367       .  D
C1278      C1290   1.516       .  S
C1283      C1284   1.556       .  S
C1283      C1289   1.552       .  S
C1283      C1287   1.552       .  S
C1283      C1336   1.537       .  S
C1284      H1291   1.078       .  S
C1284      C1285   1.362       .  D
C1285      C1286   1.536       .  S
C1286      C1290   1.539       .  S
C1286      C1288   1.538       .  S
C1286      H1292   1.049       .  S
C1287      H1293   1.085       .  S
C1287      C1288   1.372       .  D
C1289      H1294   1.084       .  S
C1289      C1290   1.367       .  D
C1295      H1302   1.082       .  S
C1295      C1296   1.404       .  A
C1295      C1300   1.400       .  A
C1296      C1297   1.404       .  A
C1297      C1298   1.395       .  A
C1297      F1304   1.358       .  S
C1298      H1303   1.075       .  S
C1298      C1299   1.412       .  A
C1299      C1300   1.412       .  A
C1300      F1301   1.358       .  S
C1305      H1312   1.077       .  S
C1305      C1306   1.409       .  A
C1305      C1310   1.392       .  A
C1306      C1307   1.413       .  A
C1307      C1308   1.400       .  A
C1307      F1314   1.358       .  S
C1308      H1313   1.083       .  S
C1308      C1309   1.403       .  A
C1309      C1310   1.405       .  A
C1310      F1311   1.358       .  S
C1315      H1322   1.083       .  S
C1315      C1316   1.406       .  A
C1315      C1320   1.401       .  A
C1316      C1317   1.407       .  A
C1317      C1318   1.397       .  A
C1317      F1324   1.355       .  S
C1318      H1323   1.079       .  S
C1318      C1319   1.411       .  A
C1319      C1320   1.411       .  A
C1320      F1321   1.357       .  S
C1325      H1332   1.079       .  S
C1325      C1326   1.411       .  A
C1325      C1330   1.396       .  A
C1326      C1327   1.412       .  A
C1327      C1328   1.403       .  A
C1327      F1334   1.357       .  S
C1328      H1333   1.082       .  S
C1328      C1329   1.405       .  A
C1329      C1330   1.406       .  A
C1330      F1331   1.358       .  S
C1335      H1342   1.077       .  S
C1335      C1336   1.411       .  A
C1335      C1340   1.394       .  A
C1336      C1337   1.413       .  A
C1337      C1338   1.404       .  A
C1337      F1344   1.357       .  S
C1338      H1343   1.082       .  S
C1338      C1339   1.405       .  A
C1339      C1340   1.405       .  A
C1340      F1341   1.358       .  S
C1345      H1352   1.079       .  S
C1345      C1346   1.409       .  A
C1345      C1350   1.399       .  A
C1346      C1347   1.415       .  A
C1347      C1348   1.401       .  A
C1347      F1354   1.357       .  S
C1348      H1353   1.082       .  S
C1348      C1349   1.403       .  A
C1349      C1350   1.408       .  A
C1350      F1351   1.357       .  S
C1355      H1362   1.083       .  S
C1355      C1356   1.405       .  A
C1355      C1360   1.400       .  A
C1356      C1357   1.408       .  A
C1357      C1358   1.399       .  A
C1357      F1364   1.355       .  S
C1358      H1363   1.080       .  S
C1358      C1359   1.411       .  A
C1359      C1360   1.412       .  A
C1360      F1361   1.357       .  S
C1365      H1372   1.078       .  S
C1365      C1366   1.412       .  A
C1365      C1370   1.400       .  A
C1366      C1367   1.413       .  A
C1367      C1368   1.399       .  A
C1367      F1374   1.358       .  S
C1368      H1373   1.082       .  S
C1368      C1369   1.404       .  A
C1369      C1370   1.406       .  A
C1370      F1371   1.357       .  S
C1375      N1393   1.353       .  A
C1375      C1412   1.462       .  S
C1375      C1598   1.485       .  S
N1376      N1393   1.326       .  A
N1376      N1398   1.319       .  A
C1377      N1402   1.344       .  A
C1377      C1415   1.467       .  S
C1377      H1422   1.081       .  S
H1378      C1419   1.081       .  S
C1379      N1403   1.342       .  A
C1379      C1383   1.467       .  S
C1379      H1408   1.080       .  S
Co1380     N1649   2.086       .  S
Co1380     N1396   2.084       .  S
N1381      C1419   1.344       .  A
N1381      N1388   1.318       .  A
Co1382     N1385   2.089       .  S
C1383      N1421   1.353       .  A
C1383      C1585   1.488       .  S
N1384      N1391   1.319       .  A
N1384      N1414   1.321       .  A
N1384     Co1417   2.077   1_565  S
N1385      N1403   1.319       .  A
N1385      N1421   1.325       .  A
N1386      C1415   1.350       .  A
N1386      N1396   1.323       .  A
H1387      C1412   1.081       .  S
N1388      N1409   1.322       .  A
N1389      N1407   1.319       .  A
N1389      N1394   1.324       .  A
C1390      N1394   1.351       .  A
C1390      C1418   1.461       .  S
C1390      C1525   1.480       .  S
N1391      C1406   1.343       .  A
C1392      N1420   1.340       .  A
C1392      C1395   1.467       .  S
C1392      H1426   1.080       .  S
C1395      N1416   1.353       .  A
C1395      C1545   1.488       .  S
N1396      N1402   1.320       .  A
N1397      C1423   1.343       .  A
N1397      N1399   1.320       .  A
N1398      C1412   1.339       .  A
N1399      N1427   1.324       .  A
H1400      C1423   1.081       .  S
H1401      C1418   1.081       .  S
N1403     Co1646   2.090   1_565  S
N1404      N1416   1.325       .  A
N1404      N1420   1.318       .  A
N1404     Co1413   2.086       .  S
C1405      N1409   1.350       .  A
C1405      C1419   1.465       .  S
C1405      C1568   1.485       .  S
C1406      C1425   1.463       .  S
C1406      H1410   1.081       .  S
N1407      C1418   1.341       .  A
C1411      N1427   1.351       .  A
C1411      C1423   1.465       .  S
C1411      C1558   1.485       .  S
N1414      C1425   1.348       .  A
C1415      C1578   1.486       .  S
Co1417     N1632   2.090   1_544  S
N1420     Co1609   2.086   1_554  S
C1425      C1538   1.477       .  S
C1428      C1429   1.554       .  S
C1428      C1434   1.557       .  S
C1428      C1432   1.549       .  S
C1428      C1528   1.533       .  S
C1429      H1436   1.084       .  S
C1429      C1430   1.368       .  D
C1430      C1431   1.538       .  S
C1430      C1483   1.520       .  S
C1431      C1435   1.537       .  S
C1431      C1433   1.538       .  S
C1431      H1437   1.049       .  S
C1432      H1438   1.085       .  S
C1432      C1433   1.368       .  D
C1433      C1445   1.514       .  S
C1434      H1439   1.077       .  S
C1434      C1435   1.363       .  D
C1435      C1466   1.515       .  S
C1440      C1441   1.556       .  S
C1440      C1446   1.555       .  S
C1440      C1444   1.545       .  S
C1440      C1588   1.534       .  S
C1441      H1448   1.084       .  S
C1441      C1442   1.369       .  D
C1442      C1443   1.537       .  S
C1442      C1459   1.517       .  S
C1443      C1447   1.534       .  S
C1443      C1445   1.539       .  S
C1443      H1449   1.050       .  S
C1444      H1450   1.085       .  S
C1444      C1445   1.367       .  D
C1446      H1451   1.081       .  S
C1446      C1447   1.367       .  D
C1447      C1514   1.516       .  S
C1452      C1453   1.557       .  S
C1452      C1458   1.552       .  S
C1452      C1456   1.547       .  S
C1452      C1535   1.528       .  S
C1453      H1460   1.079       .  S
C1453      C1454   1.363       .  D
C1454      C1455   1.538       .  S
C1454      C1505   1.517       .  S
C1455      C1459   1.540       .  S
C1455      C1457   1.542       .  S
C1455      H1461   1.050       .  S
C1456      H1462   1.085       .  S
C1456      C1457   1.365       .  D
C1457      C1469   1.516       .  S
C1458      H1463   1.084       .  S
C1458      C1459   1.367       .  D
C1464      C1465   1.553       .  S
C1464      C1470   1.554       .  S
C1464      C1468   1.550       .  S
C1464      C1555   1.537       .  S
C1465      H1472   1.084       .  S
C1465      C1466   1.369       .  D
C1466      C1467   1.534       .  S
C1467      C1471   1.531       .  S
C1467      C1469   1.536       .  S
C1467      H1473   1.050       .  S
C1468      H1474   1.084       .  S
C1468      C1469   1.372       .  D
C1470      H1475   1.079       .  S
C1470      C1471   1.363       .  D
C1471      C1490   1.511       .  S
C1476      C1477   1.553       .  S
C1476      C1482   1.559       .  S
C1476      C1480   1.549       .  S
C1476      C1575   1.534       .  S
C1477      H1484   1.084       .  S
C1477      C1478   1.366       .  D
C1478      C1479   1.538       .  S
C1478      C1495   1.517       .  S
C1479      C1483   1.539       .  S
C1479      C1481   1.542       .  S
C1479      H1485   1.050       .  S
C1480      H1486   1.085       .  S
C1480      C1481   1.367       .  D
C1481      C1517   1.519       .  S
C1482      H1487   1.082       .  S
C1482      C1483   1.368       .  D
C1488      C1489   1.552       .  S
C1488      C1494   1.554       .  S
C1488      C1492   1.550       .  S
C1488      C1548   1.535       .  S
C1489      H1496   1.080       .  S
C1489      C1490   1.363       .  D
C1490      C1491   1.534       .  S
C1491      C1495   1.538       .  S
C1491      C1493   1.540       .  S
C1491      H1497   1.051       .  S
C1492      H1498   1.085       .  S
C1492      C1493   1.370       .  D
C1493      C1502   1.518       .  S
C1494      H1499   1.084       .  S
C1494      C1495   1.368       .  D
C1500      C1501   1.550       .  S
C1500      C1506   1.558       .  S
C1500      C1504   1.553       .  S
C1500      C1595   1.536       .  S
C1501      H1508   1.085       .  S
C1501      C1502   1.369       .  D
C1502      C1503   1.539       .  S
C1503      C1507   1.536       .  S
C1503      C1505   1.534       .  S
C1503      H1509   1.049       .  S
C1504      H1510   1.084       .  S
C1504      C1505   1.368       .  D
C1506      H1511   1.080       .  S
C1506      C1507   1.367       .  D
C1507      C1519   1.516       .  S
C1512      C1513   1.556       .  S
C1512      C1518   1.552       .  S
C1512      C1516   1.552       .  S
C1512      C1565   1.537       .  S
C1513      H1520   1.078       .  S
C1513      C1514   1.362       .  D
C1514      C1515   1.535       .  S
C1515      C1519   1.539       .  S
C1515      C1517   1.538       .  S
C1515      H1521   1.050       .  S
C1516      H1522   1.084       .  S
C1516      C1517   1.372       .  D
C1518      H1523   1.084       .  S
C1518      C1519   1.367       .  D
C1524      H1531   1.082       .  S
C1524      C1525   1.404       .  A
C1524      C1529   1.400       .  A
C1525      C1526   1.404       .  A
C1526      C1527   1.395       .  A
C1526      F1533   1.358       .  S
C1527      H1532   1.075       .  S
C1527      C1528   1.412       .  A
C1528      C1529   1.412       .  A
C1529      F1530   1.358       .  S
C1534      H1541   1.077       .  S
C1534      C1535   1.409       .  A
C1534      C1539   1.392       .  A
C1535      C1536   1.413       .  A
C1536      C1537   1.400       .  A
C1536      F1543   1.358       .  S
C1537      H1542   1.083       .  S
C1537      C1538   1.403       .  A
C1538      C1539   1.405       .  A
C1539      F1540   1.358       .  S
C1544      H1551   1.083       .  S
C1544      C1545   1.406       .  A
C1544      C1549   1.401       .  A
C1545      C1546   1.407       .  A
C1546      C1547   1.397       .  A
C1546      F1553   1.355       .  S
C1547      H1552   1.079       .  S
C1547      C1548   1.411       .  A
C1548      C1549   1.411       .  A
C1549      F1550   1.357       .  S
C1554      H1561   1.079       .  S
C1554      C1555   1.411       .  A
C1554      C1559   1.396       .  A
C1555      C1556   1.412       .  A
C1556      C1557   1.403       .  A
C1556      F1563   1.357       .  S
C1557      H1562   1.082       .  S
C1557      C1558   1.405       .  A
C1558      C1559   1.406       .  A
C1559      F1560   1.358       .  S
C1564      H1571   1.077       .  S
C1564      C1565   1.411       .  A
C1564      C1569   1.394       .  A
C1565      C1566   1.413       .  A
C1566      C1567   1.404       .  A
C1566      F1573   1.357       .  S
C1567      H1572   1.082       .  S
C1567      C1568   1.405       .  A
C1568      C1569   1.405       .  A
C1569      F1570   1.358       .  S
C1574      H1581   1.079       .  S
C1574      C1575   1.409       .  A
C1574      C1579   1.399       .  A
C1575      C1576   1.415       .  A
C1576      C1577   1.401       .  A
C1576      F1583   1.357       .  S
C1577      H1582   1.082       .  S
C1577      C1578   1.403       .  A
C1578      C1579   1.408       .  A
C1579      F1580   1.357       .  S
C1584      H1591   1.083       .  S
C1584      C1585   1.405       .  A
C1584      C1589   1.400       .  A
C1585      C1586   1.408       .  A
C1586      C1587   1.399       .  A
C1586      F1593   1.355       .  S
C1587      H1592   1.080       .  S
C1587      C1588   1.411       .  A
C1588      C1589   1.412       .  A
C1589      F1590   1.357       .  S
C1594      H1601   1.078       .  S
C1594      C1595   1.412       .  A
C1594      C1599   1.400       .  A
C1595      C1596   1.413       .  A
C1596      C1597   1.399       .  A
C1596      F1603   1.358       .  S
C1597      H1602   1.082       .  S
C1597      C1598   1.404       .  A
C1598      C1599   1.406       .  A
C1599      F1600   1.357       .  S
C1604      N1622   1.353       .  A
C1604      C1641   1.462       .  S
C1604      C1827   1.485       .  S
N1605      N1622   1.326       .  A
N1605      N1627   1.319       .  A
C1606      N1631   1.344       .  A
C1606      C1644   1.467       .  S
C1606      H1651   1.081       .  S
H1607      C1648   1.081       .  S
C1608      N1632   1.342       .  A
C1608      C1612   1.467       .  S
C1608      H1637   1.080       .  S
Co1609     N1625   2.084       .  S
N1610      C1648   1.344       .  A
N1610      N1617   1.318       .  A
Co1611     N1614   2.089       .  S
C1612      N1650   1.353       .  A
C1612      C1814   1.488       .  S
N1613      N1620   1.319       .  A
N1613      N1643   1.321       .  A
N1613     Co1646   2.077   1_565  S
N1614      N1632   1.319       .  A
N1614      N1650   1.325       .  A
N1615      C1644   1.350       .  A
N1615      N1625   1.323       .  A
H1616      C1641   1.081       .  S
N1617      N1638   1.322       .  A
N1618      N1636   1.319       .  A
N1618      N1623   1.324       .  A
C1619      N1623   1.351       .  A
C1619      C1647   1.461       .  S
C1619      C1754   1.480       .  S
N1620      C1635   1.343       .  A
C1621      N1649   1.340       .  A
C1621      C1624   1.467       .  S
C1621      H1655   1.080       .  S
C1624      N1645   1.353       .  A
C1624      C1774   1.488       .  S
N1625      N1631   1.320       .  A
N1626      C1652   1.343       .  A
N1626      N1628   1.320       .  A
N1627      C1641   1.339       .  A
N1628      N1656   1.324       .  A
H1629      C1652   1.081       .  S
H1630      C1647   1.081       .  S
N1633      N1645   1.325       .  A
N1633      N1649   1.318       .  A
N1633     Co1642   2.086       .  S
C1634      N1638   1.350       .  A
C1634      C1648   1.465       .  S
C1634      C1797   1.485       .  S
C1635      C1654   1.463       .  S
C1635      H1639   1.081       .  S
N1636      C1647   1.341       .  A
C1640      N1656   1.351       .  A
C1640      C1652   1.465       .  S
C1640      C1787   1.485       .  S
N1643      C1654   1.348       .  A
C1644      C1807   1.486       .  S
C1654      C1767   1.477       .  S
C1657      C1658   1.554       .  S
C1657      C1663   1.557       .  S
C1657      C1661   1.549       .  S
C1657      C1757   1.533       .  S
C1658      H1665   1.084       .  S
C1658      C1659   1.368       .  D
C1659      C1660   1.538       .  S
C1659      C1712   1.520       .  S
C1660      C1664   1.537       .  S
C1660      C1662   1.538       .  S
C1660      H1666   1.049       .  S
C1661      H1667   1.085       .  S
C1661      C1662   1.368       .  D
C1662      C1674   1.514       .  S
C1663      H1668   1.077       .  S
C1663      C1664   1.363       .  D
C1664      C1695   1.515       .  S
C1669      C1670   1.556       .  S
C1669      C1675   1.555       .  S
C1669      C1673   1.545       .  S
C1669      C1817   1.534       .  S
C1670      H1677   1.084       .  S
C1670      C1671   1.369       .  D
C1671      C1672   1.537       .  S
C1671      C1688   1.517       .  S
C1672      C1676   1.534       .  S
C1672      C1674   1.539       .  S
C1672      H1678   1.050       .  S
C1673      H1679   1.085       .  S
C1673      C1674   1.367       .  D
C1675      H1680   1.081       .  S
C1675      C1676   1.367       .  D
C1676      C1743   1.516       .  S
C1681      C1682   1.557       .  S
C1681      C1687   1.552       .  S
C1681      C1685   1.547       .  S
C1681      C1764   1.528       .  S
C1682      H1689   1.079       .  S
C1682      C1683   1.363       .  D
C1683      C1684   1.538       .  S
C1683      C1734   1.517       .  S
C1684      C1688   1.540       .  S
C1684      C1686   1.542       .  S
C1684      H1690   1.050       .  S
C1685      H1691   1.085       .  S
C1685      C1686   1.365       .  D
C1686      C1698   1.516       .  S
C1687      H1692   1.084       .  S
C1687      C1688   1.367       .  D
C1693      C1694   1.553       .  S
C1693      C1699   1.554       .  S
C1693      C1697   1.550       .  S
C1693      C1784   1.537       .  S
C1694      H1701   1.084       .  S
C1694      C1695   1.369       .  D
C1695      C1696   1.534       .  S
C1696      C1700   1.531       .  S
C1696      C1698   1.536       .  S
C1696      H1702   1.050       .  S
C1697      H1703   1.084       .  S
C1697      C1698   1.372       .  D
C1699      H1704   1.079       .  S
C1699      C1700   1.363       .  D
C1700      C1719   1.511       .  S
C1705      C1706   1.553       .  S
C1705      C1711   1.559       .  S
C1705      C1709   1.549       .  S
C1705      C1804   1.534       .  S
C1706      H1713   1.084       .  S
C1706      C1707   1.366       .  D
C1707      C1708   1.538       .  S
C1707      C1724   1.517       .  S
C1708      C1712   1.539       .  S
C1708      C1710   1.542       .  S
C1708      H1714   1.050       .  S
C1709      H1715   1.085       .  S
C1709      C1710   1.367       .  D
C1710      C1746   1.519       .  S
C1711      H1716   1.082       .  S
C1711      C1712   1.368       .  D
C1717      C1718   1.552       .  S
C1717      C1723   1.554       .  S
C1717      C1721   1.550       .  S
C1717      C1777   1.535       .  S
C1718      H1725   1.080       .  S
C1718      C1719   1.363       .  D
C1719      C1720   1.534       .  S
C1720      C1724   1.538       .  S
C1720      C1722   1.540       .  S
C1720      H1726   1.051       .  S
C1721      H1727   1.085       .  S
C1721      C1722   1.370       .  D
C1722      C1731   1.518       .  S
C1723      H1728   1.084       .  S
C1723      C1724   1.368       .  D
C1729      C1730   1.550       .  S
C1729      C1735   1.558       .  S
C1729      C1733   1.553       .  S
C1729      C1824   1.536       .  S
C1730      H1737   1.085       .  S
C1730      C1731   1.369       .  D
C1731      C1732   1.539       .  S
C1732      C1736   1.535       .  S
C1732      C1734   1.534       .  S
C1732      H1738   1.049       .  S
C1733      H1739   1.084       .  S
C1733      C1734   1.368       .  D
C1735      H1740   1.080       .  S
C1735      C1736   1.367       .  D
C1736      C1748   1.516       .  S
C1741      C1742   1.556       .  S
C1741      C1747   1.552       .  S
C1741      C1745   1.552       .  S
C1741      C1794   1.537       .  S
C1742      H1749   1.078       .  S
C1742      C1743   1.362       .  D
C1743      C1744   1.535       .  S
C1744      C1748   1.539       .  S
C1744      C1746   1.538       .  S
C1744      H1750   1.050       .  S
C1745      H1751   1.084       .  S
C1745      C1746   1.372       .  D
C1747      H1752   1.084       .  S
C1747      C1748   1.367       .  D
C1753      H1760   1.082       .  S
C1753      C1754   1.404       .  A
C1753      C1758   1.400       .  A
C1754      C1755   1.404       .  A
C1755      C1756   1.395       .  A
C1755      F1762   1.358       .  S
C1756      H1761   1.075       .  S
C1756      C1757   1.412       .  A
C1757      C1758   1.412       .  A
C1758      F1759   1.358       .  S
C1763      H1770   1.077       .  S
C1763      C1764   1.409       .  A
C1763      C1768   1.392       .  A
C1764      C1765   1.413       .  A
C1765      C1766   1.400       .  A
C1765      F1772   1.358       .  S
C1766      H1771   1.083       .  S
C1766      C1767   1.403       .  A
C1767      C1768   1.405       .  A
C1768      F1769   1.358       .  S
C1773      H1780   1.083       .  S
C1773      C1774   1.406       .  A
C1773      C1778   1.401       .  A
C1774      C1775   1.407       .  A
C1775      C1776   1.397       .  A
C1775      F1782   1.355       .  S
C1776      H1781   1.079       .  S
C1776      C1777   1.411       .  A
C1777      C1778   1.411       .  A
C1778      F1779   1.357       .  S
C1783      H1790   1.079       .  S
C1783      C1784   1.411       .  A
C1783      C1788   1.396       .  A
C1784      C1785   1.412       .  A
C1785      C1786   1.403       .  A
C1785      F1792   1.357       .  S
C1786      H1791   1.082       .  S
C1786      C1787   1.405       .  A
C1787      C1788   1.406       .  A
C1788      F1789   1.358       .  S
C1793      H1800   1.077       .  S
C1793      C1794   1.411       .  A
C1793      C1798   1.394       .  A
C1794      C1795   1.413       .  A
C1795      C1796   1.404       .  A
C1795      F1802   1.357       .  S
C1796      H1801   1.082       .  S
C1796      C1797   1.405       .  A
C1797      C1798   1.405       .  A
C1798      F1799   1.358       .  S
C1803      H1810   1.079       .  S
C1803      C1804   1.409       .  A
C1803      C1808   1.399       .  A
C1804      C1805   1.415       .  A
C1805      C1806   1.401       .  A
C1805      F1812   1.357       .  S
C1806      H1811   1.082       .  S
C1806      C1807   1.403       .  A
C1807      C1808   1.408       .  A
C1808      F1809   1.357       .  S
C1813      H1820   1.083       .  S
C1813      C1814   1.405       .  A
C1813      C1818   1.400       .  A
C1814      C1815   1.408       .  A
C1815      C1816   1.399       .  A
C1815      F1822   1.355       .  S
C1816      H1821   1.080       .  S
C1816      C1817   1.411       .  A
C1817      C1818   1.412       .  A
C1818      F1819   1.357       .  S
C1823      H1830   1.078       .  S
C1823      C1824   1.412       .  A
C1823      C1828   1.400       .  A
C1824      C1825   1.413       .  A
C1825      C1826   1.399       .  A
C1825      F1832   1.358       .  S
C1826      H1831   1.082       .  S
C1826      C1827   1.404       .  A
C1827      C1828   1.406       .  A
C1828      F1829   1.357       .  S
