geometry optimzed in LAMMPS
_audit_creation_date              2020-11-30 
_audit_creation_method            'lammps2cif' 
_symmetry_space_group_name_H-M    'P1' 
_symmetry_Int_Tables_number       1 
_symmetry_cell_setting            triclinic 
loop_ 
_symmetry_equiv_pos_as_xyz 
  x,y,z 
_cell_length_a                    32.33283575444656 
_cell_length_b                    32.4693355466107 
_cell_length_c                    32.607729807374504 
_cell_angle_alpha                 90.0412755775883 
_cell_angle_beta                  90.24012189494638 
_cell_angle_gamma                 90.92192065273251 
loop_ 
_atom_site_label 
_atom_site_type_symbol 
_atom_site_fract_x 
_atom_site_fract_y 
_atom_site_fract_z 
_atom_site_charge 
N1          N  0.17146996  0.19885831  0.20125886    -0.05900
N2          N  0.14258224  0.18811311  0.17424505    -0.58020
N3          N  0.19628816  0.17104667  0.29639797    -0.05580
N4          N  0.18658903  0.14261845  0.32408336    -0.60150
N5          N  0.16802003  0.19988860  0.29598950    -0.05180
N6          N  0.13911882  0.19154385  0.32369281    -0.58000
N7          N  0.20101835  0.17129225  0.20171221    -0.04860
N8          N  0.19271630  0.14186028  0.17470264    -0.60500
C9          C  0.15672564  0.15315874  0.15669087     0.96270
C10         C  0.15109459  0.15578891  0.34160486     0.96050
N11         N  0.32410713  0.20233769  0.30158879    -0.06090
N12         N  0.35257513  0.19409950  0.32932022    -0.58600
N13         N  0.30216083  0.17094471  0.20641004    -0.04210
N14         N  0.31443702  0.14163567  0.18075838    -0.59850
N15         N  0.33019174  0.20086096  0.20780182    -0.06120
N16         N  0.36151428  0.19220262  0.18327664    -0.58870
N17         N  0.29554627  0.17304120  0.30110324    -0.03850
N18         N  0.30413657  0.14479368  0.32905404    -0.59940
Mn19       Mn  0.24860416  0.17076498  0.25117255     1.18440
C20         C  0.33966030  0.15868951  0.34727718     0.98360
C21         C  0.35166544  0.15512783  0.16594703     0.99020
N22         N  0.16719064  0.29939271  0.29495135    -0.06140
N23         N  0.13735851  0.30817648  0.32108825    -0.62450
N24         N  0.19889070  0.32814526  0.20138854    -0.04940
N25         N  0.19019347  0.35715210  0.17422070    -0.63120
N26         N  0.17086498  0.29828689  0.19941874    -0.05640
N27         N  0.14336966  0.30641003  0.17026066    -0.62710
N28         N  0.19603023  0.32844549  0.29622111    -0.04540
N29         N  0.18624049  0.35713545  0.32329539    -0.63400
Mn30       Mn  0.16855068  0.24907158  0.24786252     1.10660
C31         C  0.14980504  0.34383676  0.33959595     0.99580
C32         C  0.15599877  0.34309867  0.15387453     0.99660
N33         N  0.32783195  0.30103756  0.20786299    -0.05650
N34         N  0.35796483  0.31052862  0.18208500    -0.61020
N35         N  0.29489840  0.32959705  0.30045550    -0.04970
N36         N  0.30318497  0.35846312  0.32827595    -0.57750
N37         N  0.32316214  0.30085151  0.30180516    -0.06280
N38         N  0.35074974  0.30969775  0.33062152    -0.60590
N39         N  0.29885494  0.32910687  0.20629447    -0.05270
N40         N  0.30880905  0.35782718  0.17917605    -0.57780
Mn41       Mn  0.32680208  0.25136071  0.25461810     1.20190
Mn42       Mn  0.24714729  0.32953780  0.25099258     1.10090
Cl43       Cl  0.24774739  0.25010245  0.25077213    -0.85750
C44         C  0.34581682  0.34595740  0.16401340     0.96590
C45         C  0.33805550  0.34563420  0.34744013     0.96380
C46         C  0.36436018  0.37046493  0.37892864    -0.02270
C47         C  0.36734972  0.13195272  0.37465855    -0.02270
C48         C  0.12156778  0.37052591  0.36667490    -0.02270
C49         C  0.12472183  0.13062528  0.37279472    -0.02270
C50         C  0.46970818  0.00428704  0.31290166     0.00780
C51         C  0.01275096  0.99901769  0.31323002     0.00780
C52         C  0.37011611  0.36948670  0.13070798    -0.02270
C53         C  0.12872319  0.36980647  0.12509171    -0.02270
C54         C  0.49729410  0.30860595  0.47928459     0.00780
C55         C  0.49297661  0.30973835  0.02215142     0.00780
C56         C  0.12920227  0.12296667  0.13247987    -0.02270
C57         C  0.48515717  0.99459563  0.18846908     0.00780
C58         C  0.02744132  0.99779993  0.19740954     0.00780
C59         C  0.18587522  0.47964107  0.99326960     0.00780
C60         C  0.19030933  0.02193372  0.00046789     0.00780
C61         C  0.47840957  0.19337296  0.00573601     0.00780
C62         C  0.02090129  0.18745102  0.00170230     0.00780
C63         C  0.37945268  0.13388278  0.13286587    -0.02270
C64         C  0.31276889  0.48072027  0.00970270     0.00780
C65         C  0.31297899  0.02299892  0.00310526     0.00780
C66         C  0.31639797  0.08776979  0.10337801    -0.21090
C67         C  0.35597422  0.10698607  0.09957327    -0.09130
C68         C  0.37870264  0.09579742  0.06464222     0.29730
C69         C  0.36260219  0.07165306  0.03348992    -0.21090
C70         C  0.32375793  0.05311211  0.03664757    -0.09140
C71         C  0.30114864  0.06010832  0.07289029     0.29730
F72         F  0.26738197  0.03676765  0.08123625    -0.19670
H73         H  0.29822351  0.09088295  0.13068693     0.18100
H74         H  0.38290499  0.06333487  0.00867101     0.18100
F75         F  0.41851926  0.10640825  0.06158810    -0.19660
C76         C  0.44147928  0.18528546  0.11920786    -0.21090
C77         C  0.40125598  0.17089686  0.10987096    -0.09130
C78         C  0.38374777  0.18804798  0.07422151     0.29730
C79         C  0.40973365  0.20236034  0.04288029    -0.21090
C80         C  0.45344450  0.19859908  0.04589373    -0.09140
C81         C  0.46855668  0.19631370  0.08681531     0.29730
F82         F  0.50848778  0.20428622  0.09670277    -0.19670
H83         H  0.45436415  0.18019566  0.14946331     0.18100
H84         H  0.39505915  0.21141111  0.01448476     0.18100
F85         F  0.34240548  0.18521530  0.06701682    -0.19660
C86         C  0.47219164  0.05727447  0.14619400    -0.21090
C87         C  0.45839189  0.03069751  0.17653092    -0.09130
C88         C  0.41624547  0.03408252  0.18679970     0.29730
C89         C  0.39355278  0.06957702  0.17661587    -0.21090
C90         C  0.41050398  0.10153686  0.15206547    -0.09140
C91         C  0.45126372  0.09308806  0.13661763     0.29730
F92         F  0.47232308  0.11641351  0.10973759    -0.19670
H93         H  0.50133772  0.05145619  0.13108974     0.18100
H94         H  0.36122577  0.07025289  0.18500781     0.18100
F95         F  0.39514845  0.00100198  0.20120337    -0.19660
C96         C  0.06741591  0.11810208  0.08373262    -0.21090
C97         C  0.09947273  0.14291313  0.10098797    -0.09130
C98         C  0.10724813  0.18144420  0.08216029     0.29730
C99         C  0.08319124  0.19421451  0.04888132    -0.21090
C100        C  0.04780865  0.17214832  0.03597901    -0.09140
C101        C  0.04151008  0.13268207  0.05262693     0.29730
F102        F  0.01177909  0.10710509  0.03739704    -0.19670
H103        H  0.06254130  0.08679572  0.09429587     0.18100
H104        H  0.09396141  0.22048138  0.03218452     0.18100
F105        F  0.13970460  0.20591718  0.09335069    -0.19660
C106        C  0.15006132  0.05161275  0.10334098    -0.21090
C107        C  0.15624202  0.09454743  0.10487848    -0.09130
C108        C  0.18551111  0.11093453  0.07664302     0.29730
C109        C  0.20276716  0.08576907  0.04602024    -0.21090
C110        C  0.19252279  0.04314117  0.04310274    -0.09140
C111        C  0.17371578  0.02675389  0.07814589     0.29730
F112        F  0.19401200  0.99777773  0.09944379    -0.19670
H113        H  0.12936193  0.03579295  0.12358006     0.18100
H114        H  0.22060539  0.10058045  0.02208006     0.18100
F115        F  0.19511931  0.15168523  0.07623829    -0.19660
C116        C  0.03880307  0.07816303  0.19788732    -0.21090
C117        C  0.05386741  0.03796613  0.20317265    -0.09130
C118        C  0.09795907  0.03633830  0.20577580     0.29730
C119        C  0.12270286  0.06816465  0.18960903    -0.21090
C120        C  0.10424437  0.09944188  0.16648252    -0.09140
C121        C  0.06292474  0.10812987  0.17733843     0.29730
F122        F  0.04556050  0.14458756  0.16741312    -0.19670
H123        H  0.00787270  0.08593549  0.20703514     0.18100
H124        H  0.15583073  0.06395204  0.18837112     0.18100
F125        F  0.11777200  0.00175492  0.21734743    -0.19660
C126        C  0.06596580  0.29962528  0.05216383    -0.21090
C127        C  0.02847715  0.32042930  0.05077839    -0.09130
C128        C  0.02284782  0.35224534  0.07907516     0.29730
C129        C  0.05086878  0.36003639  0.11016767    -0.21090
C130        C  0.09103431  0.34338597  0.10906571    -0.09140
C131        C  0.09729456  0.31088080  0.08060953     0.29730
F132        F  0.13531776  0.29435983  0.07643539    -0.19670
H133        H  0.07210608  0.27836198  0.02798852     0.18100
H134        H  0.04222635  0.38482906  0.13002667     0.18100
F135        F  0.99104239  0.37827704  0.07479628    -0.19660
C136        C  0.20228087  0.43442043  0.05443258    -0.21090
C137        C  0.17411883  0.44914017  0.02587317    -0.09130
C138        C  0.13456150  0.43143841  0.02546864     0.29730
C139        C  0.12417722  0.39968498  0.05222309    -0.21090
C140        C  0.15044768  0.38752716  0.08527861    -0.09140
C141        C  0.19092097  0.40523318  0.08469810     0.29730
F142        F  0.21855391  0.39813942  0.11488201    -0.19670
H143        H  0.23070912  0.45134975  0.05707822     0.18100
H144        H  0.09221898  0.39082911  0.05074789     0.18100
F145        F  0.10408725  0.44734646  0.00184818    -0.19660
C146        C  0.09127460  0.39864174  0.18856163    -0.21090
C147        C  0.11191077  0.40657134  0.15101781    -0.09130
C148        C  0.10454569  0.44553722  0.13303871     0.29730
C149        C  0.07330865  0.47041768  0.14604344    -0.21090
C150        C  0.05308888  0.46283218  0.18259520    -0.09140
C151        C  0.06231624  0.42651414  0.20423938     0.29730
F152        F  0.04179830  0.41614058  0.23853451    -0.19670
H153        H  0.09464167  0.36929937  0.20382818     0.18100
H154        H  0.06712047  0.49831285  0.12892839     0.18100
F155        F  0.12686385  0.46129327  0.10253558    -0.19660
C156        C  0.42046778  0.33550394  0.03180232    -0.21090
C157        C  0.45202086  0.31018137  0.04503227    -0.09130
C158        C  0.44928140  0.29615993  0.08624858     0.29730
C159        C  0.41884342  0.31092020  0.11267583    -0.21090
C160        C  0.38815431  0.33821372  0.09891641    -0.09140
C161        C  0.38622609  0.34348676  0.05593004     0.29730
F162        F  0.35290666  0.35715773  0.03609077    -0.19670
H163        H  0.42418785  0.35292423  0.00427502     0.18100
H164        H  0.42342502  0.30551190  0.14505355     0.18100
F165        F  0.48131123  0.27672572  0.10413667    -0.19660
C166        C  0.34791959  0.44519482  0.11712053    -0.21090
C167        C  0.34036966  0.40252701  0.11230755    -0.09130
C168        C  0.30694740  0.39207864  0.08686254     0.29730
C169        C  0.29627935  0.41929537  0.05524510    -0.21090
C170        C  0.31430177  0.45944897  0.05177154    -0.09140
C171        C  0.34057055  0.47176623  0.08453975     0.29730
F172        F  0.36684325  0.50430289  0.08232945    -0.19670
H173        H  0.36718940  0.45690310  0.14173921     0.18100
H174        H  0.27682303  0.40715102  0.03086120     0.18100
F175        F  0.29133679  0.35298722  0.08634915    -0.19660
C176        C  0.42222101  0.39421697  0.18830320    -0.21090
C177        C  0.40937079  0.39320899  0.14690693    -0.09130
C178        C  0.43205715  0.41844636  0.11894691     0.29730
C179        C  0.45908412  0.44908876  0.13280491    -0.21090
C180        C  0.46681021  0.45411459  0.17453628    -0.09140
C181        C  0.45217297  0.42344135  0.20154440     0.29730
F182        F  0.46548393  0.42263955  0.24085509    -0.19670
H183        H  0.40835833  0.37375150  0.21068380     0.18100
H184        H  0.47174279  0.47097861  0.11094383     0.18100
F185        F  0.42286629  0.41860342  0.07840106    -0.19660
C186        C  0.09220966  0.05796690  0.37467509    -0.21090
C187        C  0.10291189  0.09310323  0.35068777    -0.09130
C188        C  0.08052912  0.09774610  0.31328322     0.29730
C189        C  0.05009494  0.06843359  0.30120561    -0.21090
C190        C  0.04077617  0.03423713  0.32575254    -0.09140
C191        C  0.06031029  0.03125099  0.36374299     0.29730
F192        F  0.04437533  0.00562399  0.39259380    -0.19670
H193        H  0.10368528  0.05368845  0.40527528     0.18100
H194        H  0.03188494  0.07356522  0.27427698     0.18100
F195        F  0.08545336  0.13191406  0.28986350    -0.19660
C196        C  0.14867762  0.07939640  0.47551061    -0.21090
C197        C  0.17974637  0.05175804  0.46653956    -0.09130
C198        C  0.19821907  0.05455174  0.42749918     0.29730
C199        C  0.18398035  0.08357429  0.39846202    -0.21090
C200        C  0.15248361  0.11219285  0.40814983    -0.09140
C201        C  0.13889278  0.11120595  0.44970222     0.29730
F202        F  0.11325481  0.13808681  0.46685170    -0.19670
H203        H  0.13216845  0.07748787  0.50436262     0.18100
H204        H  0.19525374  0.08091345  0.36747962     0.18100
F205        F  0.22788944  0.02796318  0.41626667    -0.19660
C206        C  0.07394716  0.20738032  0.44677236    -0.21090
C207        C  0.04037265  0.18236572  0.46009205    -0.09130
C208        C  0.03072654  0.14744016  0.43676515     0.29730
C209        C  0.05112165  0.13944571  0.40056179    -0.21090
C210        C  0.08996670  0.15790456  0.39201543    -0.09140
C211        C  0.09905028  0.19518933  0.41338620     0.29730
F212        F  0.13546218  0.21553969  0.40730382    -0.19670
H213        H  0.08353490  0.23386390  0.46468200     0.18100
H214        H  0.03932399  0.11326849  0.38406047     0.18100
F215        F  0.00640328  0.11685005  0.45176032    -0.19660
C216        C  0.07562953  0.30825179  0.39189666    -0.21090
C217        C  0.09944328  0.34384082  0.40112877    -0.09130
C218        C  0.09862502  0.35567094  0.44318858     0.29730
C219        C  0.06687607  0.34316030  0.46900141    -0.21090
C220        C  0.03918783  0.31168121  0.45811780    -0.09140
C221        C  0.04601438  0.29256106  0.41955218     0.29730
F222        F  0.02020098  0.26251978  0.40561995    -0.19670
H223        H  0.07601269  0.29482431  0.36165179     0.18100
H224        H  0.06239982  0.36128340  0.49610512     0.18100
F225        F  0.12776403  0.37955931  0.46088089    -0.19660
C226        C  0.02062481  0.41921690  0.32450070    -0.21090
C227        C  0.03680757  0.45809754  0.31283194    -0.09130
C228        C  0.08003088  0.45883599  0.30398089     0.29730
C229        C  0.10555033  0.42568911  0.31341741    -0.21090
C230        C  0.09045880  0.39189830  0.33617633    -0.09140
C231        C  0.04678397  0.38655741  0.33556049     0.29730
F232        F  0.02869207  0.34946381  0.34213637    -0.19670
H233        H  0.98809847  0.41295168  0.32539494     0.18100
H234        H  0.13856516  0.42990642  0.30922892     0.18100
F235        F  0.09918807  0.49312541  0.28959555    -0.19660
C236        C  0.18591776  0.39972898  0.40684492    -0.21090
C237        C  0.14663716  0.40626308  0.38887475    -0.09130
C238        C  0.12534491  0.44165063  0.40262712     0.29730
C239        C  0.14303934  0.47006420  0.42987296    -0.21090
C240        C  0.17940459  0.46103266  0.45104819    -0.09140
C241        C  0.20038471  0.42489584  0.43942118     0.29730
F242        F  0.23021684  0.40971134  0.46417335    -0.19670
H243        H  0.20186617  0.37127618  0.40111517     0.18100
H244        H  0.12376709  0.49462820  0.44080221     0.18100
F245        F  0.08410671  0.44398936  0.39719940    -0.19660
C246        C  0.29502801  0.07868236  0.45210278    -0.21090
C247        C  0.31676307  0.04235592  0.46067899    -0.09130
C248        C  0.34847630  0.03168310  0.43324346     0.29730
C249        C  0.35749049  0.05601686  0.39896217    -0.21090
C250        C  0.34051126  0.09589402  0.39409739    -0.09140
C251        C  0.30668887  0.10523724  0.41981884     0.29730
F252        F  0.28874481  0.14266408  0.41770795    -0.19670
H253        H  0.27141483  0.08866294  0.47306192     0.18100
H254        H  0.38368911  0.04621280  0.38142683     0.18100
F255        F  0.37597588  0.00209876  0.44283577    -0.19660
C256        C  0.38865171  0.08920239  0.31268793    -0.21090
C257        C  0.40111022  0.11279031  0.34687994    -0.09130
C258        C  0.44211193  0.10697144  0.36070253     0.29730
C259        C  0.46341871  0.07198048  0.35018538    -0.21090
C260        C  0.45012560  0.04605853  0.31840420    -0.09140
C261        C  0.41279278  0.05674599  0.29858803     0.29730
F262        F  0.39602638  0.03303267  0.26924644    -0.19670
H263        H  0.35795558  0.09232727  0.29988524     0.18100
H264        H  0.48847048  0.06405123  0.37014522     0.18210
F265        F  0.46138335  0.13243788  0.38714163    -0.19660
C266        C  0.39745159  0.13404588  0.44700600    -0.21090
C267        C  0.38894802  0.15651825  0.41087678    -0.09130
C268        C  0.41284086  0.19383797  0.40613042     0.29730
C269        C  0.44265592  0.20586455  0.43591252    -0.21090
C270        C  0.45086241  0.18133251  0.47002106    -0.09140
C271        C  0.42963243  0.14409251  0.47291727     0.29730
F272        F  0.44449856  0.11413147  0.49688153    -0.19670
H273        H  0.38396810  0.10465980  0.45343682     0.18100
H274        H  0.46124537  0.23280509  0.43098156     0.18100
F275        F  0.41272995  0.21597899  0.37109511    -0.19660
C276        C  0.35533201  0.39004693  0.45373263    -0.21090
C277        C  0.33855867  0.39034065  0.41402141    -0.09130
C278        C  0.30860315  0.42127803  0.40639941     0.29730
C279        C  0.29827703  0.45015437  0.43717185    -0.21090
C280        C  0.31949010  0.45089240  0.47494413    -0.09140
C281        C  0.35055141  0.42233955  0.48052170     0.29730
F282        F  0.37923439  0.42767381  0.51065483    -0.19670
H283        H  0.38002694  0.37075293  0.46170324     0.18100
H284        H  0.27520545  0.47285648  0.43077612     0.18100
F285        F  0.29226739  0.42664056  0.36852472    -0.19660
C286        C  0.43943517  0.34648742  0.38542315    -0.21090
C287        C  0.39782877  0.33967140  0.39510429    -0.09130
C288        C  0.38984788  0.30825424  0.42443578     0.29730
C289        C  0.42206625  0.29578218  0.45112380    -0.21090
C290        C  0.46174414  0.31501617  0.44911718    -0.09140
C291        C  0.46866360  0.34195366  0.41580036     0.29730
F292        F  0.50180975  0.36801912  0.41450258    -0.19670
H293        H  0.44839932  0.36405027  0.35878033     0.18100
H294        H  0.41508264  0.27394659  0.47522898     0.18100
F295        F  0.35052361  0.29516991  0.43181546    -0.19660
C296        C  0.38509604  0.41949750  0.31888786    -0.21090
C297        C  0.38766709  0.40870104  0.36047396    -0.09130
C298        C  0.41568363  0.43254330  0.38549266     0.29730
C299        C  0.44131308  0.46268305  0.36891932    -0.21090
C300        C  0.44093314  0.47088367  0.32712400    -0.09140
C301        C  0.41069648  0.45061524  0.30269469     0.29730
F302        F  0.40539048  0.46008090  0.26305538    -0.19670
H303        H  0.36404796  0.40357926  0.29826766     0.18100
H304        H  0.46297759  0.47886498  0.38890223     0.18100
F305        F  0.42307697  0.42364625  0.42531843    -0.19660
N306        N  0.17147076  0.19885821  0.70125935    -0.05900
N307        N  0.14258246  0.18811204  0.67424646    -0.58020
N308        N  0.19629036  0.17104947  0.79639902    -0.05580
N309        N  0.18659197  0.14262252  0.82408587    -0.60150
N310        N  0.16802201  0.19989114  0.79598982    -0.05180
N311        N  0.13912125  0.19154748  0.82369388    -0.58000
N312        N  0.20101948  0.17129250  0.70171266    -0.04860
N313        N  0.19271724  0.14186010  0.67470349    -0.60500
C314        C  0.15672598  0.15315774  0.65669217     0.96270
C315        C  0.15109771  0.15579356  0.84160731     0.96050
N316        N  0.32410919  0.20233959  0.80158925    -0.06090
N317        N  0.35257740  0.19410144  0.82932056    -0.58600
N318        N  0.30216232  0.17094555  0.70641044    -0.04210
N319        N  0.31443823  0.14163650  0.68075863    -0.59850
N320        N  0.33019320  0.20086184  0.70780192    -0.06120
N321        N  0.36151537  0.19220358  0.68327621    -0.58870
N322        N  0.29554843  0.17304297  0.80110382    -0.03850
N323        N  0.30413901  0.14479545  0.82905460    -0.59940
Mn324      Mn  0.24860587  0.17076640  0.75117314     1.18440
C325        C  0.33966284  0.15869132  0.84727758     0.98360
C326        C  0.35166637  0.15512876  0.66594665     0.99020
N327        N  0.16719195  0.29939411  0.79495001    -0.06140
N328        N  0.13735992  0.30817714  0.82108722    -0.62450
N329        N  0.19889102  0.32814627  0.70138705    -0.04940
N330        N  0.19019255  0.35715314  0.67421950    -0.63120
N331        N  0.17086611  0.29828712  0.69941727    -0.05640
N332        N  0.14337047  0.30640950  0.67025930    -0.62710
N333        N  0.19603103  0.32844741  0.79621950    -0.04540
N334        N  0.18624080  0.35713733  0.82329366    -0.63400
Mn335      Mn  0.16855214  0.24907261  0.74786189     1.10660
C336        C  0.14980580  0.34383775  0.83959454     0.99580
C337        C  0.15599834  0.34309850  0.65387308     0.99660
N338        N  0.32783275  0.30103818  0.70786222    -0.05650
N339        N  0.35796576  0.31052901  0.68208440    -0.61020
N340        N  0.29490026  0.32960004  0.80045363    -0.04970
N341        N  0.30318783  0.35846765  0.82827228    -0.57750
N342        N  0.32316417  0.30085456  0.80180389    -0.06280
N343        N  0.35075284  0.30970246  0.83061887    -0.60590
N344        N  0.29885562  0.32910735  0.70629317    -0.05270
N345        N  0.30880980  0.35782732  0.67917455    -0.57780
Mn346      Mn  0.32680361  0.25136225  0.75461786     1.20190
Mn347      Mn  0.24714816  0.32953941  0.75099107     1.10090
Cl348      Cl  0.24774887  0.25010391  0.75077172    -0.85750
C349        C  0.34581771  0.34595747  0.66401236     0.96590
C350        C  0.33805916  0.34563987  0.84743587     0.96380
C351        C  0.36436279  0.37047127  0.87892477    -0.02270
C352        C  0.36735211  0.13195499  0.87465999    -0.02270
C353        C  0.12156807  0.37052527  0.86667430    -0.02270
C354        C  0.12472523  0.13062979  0.87279692    -0.02270
C355        C  0.46971332  0.00429280  0.81290263     0.00780
C356        C  0.01275585  0.99902243  0.81323155     0.00780
C357        C  0.37011697  0.36948658  0.63070703    -0.02270
C358        C  0.12872061  0.36980568  0.62509165    -0.02270
C359        C  0.49729502  0.30860994  0.97928400     0.00780
C360        C  0.49297603  0.30973469  0.52215192     0.00780
C361        C  0.12920290  0.12296496  0.63248109    -0.02270
C362        C  0.48515692  0.99459578  0.68846837     0.00780
C363        C  0.02744087  0.99780044  0.69740988     0.00780
C364        C  0.18587647  0.47964058  0.49327056     0.00780
C365        C  0.19031287  0.02193323  0.50046670     0.00780
C366        C  0.47840923  0.19337040  0.50573429     0.00780
C367        C  0.02090064  0.18744633  0.50170094     0.00780
C368        C  0.37945327  0.13388372  0.63286502    -0.02270
C369        C  0.31276930  0.48072050  0.50970353     0.00780
C370        C  0.31297896  0.02299901  0.50310582     0.00780
C371        C  0.31639773  0.08777317  0.60337611    -0.21090
C372        C  0.35597498  0.10698720  0.59957230    -0.09130
C373        C  0.37870386  0.09579730  0.56464180     0.29730
C374        C  0.36260346  0.07165234  0.53348984    -0.21090
C375        C  0.32375864  0.05311266  0.53664734    -0.09140
C376        C  0.30114847  0.06011141  0.57288886     0.29730
F377        F  0.26738124  0.03677216  0.58123477    -0.19670
H378        H  0.29822225  0.09088814  0.63068411     0.18100
H379        H  0.38290623  0.06333322  0.50867120     0.18100
F380        F  0.41852053  0.10640797  0.56158765    -0.19660
C381        C  0.44147956  0.18528562  0.61920635    -0.21090
C382        C  0.40125612  0.17089759  0.60987000    -0.09130
C383        C  0.38374777  0.18804824  0.57422042     0.29730
C384        C  0.40973357  0.20235906  0.54287858    -0.21090
C385        C  0.45344438  0.19859724  0.54589189    -0.09140
C386        C  0.46855682  0.19631238  0.58681339     0.29730
F387        F  0.50848792  0.20428455  0.59670068    -0.19670
H388        H  0.45436455  0.18019622  0.64946183     0.18100
H389        H  0.39505885  0.21140899  0.51448292     0.18100
F390        F  0.34240538  0.18521600  0.56701617    -0.19660
C391        C  0.47219192  0.05727460  0.64619287    -0.21090
C392        C  0.45839162  0.03069755  0.67652951    -0.09130
C393        C  0.41624493  0.03408262  0.68679734     0.29730
C394        C  0.39355282  0.06957749  0.67661387    -0.21090
C395        C  0.41050459  0.10153756  0.65206424    -0.09140
C396        C  0.45126450  0.09308858  0.63661666     0.29730
F397        F  0.47232451  0.11641392  0.60973688    -0.19670
H398        H  0.50133823  0.05145624  0.63108903     0.18100
H399        H  0.36122573  0.07025353  0.68500549     0.18100
F400        F  0.39514723  0.00100254  0.70120108    -0.19660
C401        C  0.06741941  0.11809646  0.58372952    -0.21090
C402        C  0.09947272  0.14290999  0.60098813    -0.09130
C403        C  0.10724253  0.18144449  0.58216499     0.29730
C404        C  0.08318547  0.19421342  0.54888612    -0.21090
C405        C  0.04780769  0.17214377  0.53597835    -0.09140
C406        C  0.04151282  0.13267562  0.55262362     0.29730
F407        F  0.01178470  0.10709674  0.53739119    -0.19670
H408        H  0.06254802  0.08678877  0.59429093     0.18100
H409        H  0.09395255  0.22048856  0.53219126     0.18100
F410        F  0.13969410  0.20592192  0.59335956    -0.19660
C411        C  0.15008053  0.05161013  0.60335188    -0.21090
C412        C  0.15624527  0.09454729  0.60487977    -0.09130
C413        C  0.18550499  0.11093860  0.57663719     0.29730
C414        C  0.20276166  0.08577487  0.54601354    -0.21090
C415        C  0.19252582  0.04314484  0.54310003    -0.09140
C416        C  0.17373188  0.02675540  0.57814896     0.29730
F417        F  0.19403137  0.99777310  0.59943498    -0.19670
H418        H  0.12939400  0.03578554  0.62359963     0.18100
H419        H  0.22059293  0.10058871  0.52206975     0.18100
F420        F  0.19510366  0.15169129  0.57622729    -0.19660
C421        C  0.03880137  0.07816345  0.69788764    -0.21090
C422        C  0.05386593  0.03796704  0.70317491    -0.09130
C423        C  0.09795750  0.03634034  0.70578080     0.29730
C424        C  0.12270148  0.06816724  0.68961505    -0.21090
C425        C  0.10424354  0.09944094  0.66648339    -0.09140
C426        C  0.06292314  0.10812899  0.67733692     0.29730
F427        F  0.04555876  0.14458594  0.66740913    -0.19670
H428        H  0.00787087  0.08593612  0.70703489     0.18100
H429        H  0.15582978  0.06395645  0.68838104     0.18100
F430        F  0.11777053  0.00175719  0.71735279    -0.19660
C431        C  0.06596788  0.29962774  0.55216010    -0.21090
C432        C  0.02847654  0.32042649  0.55077873    -0.09130
C433        C  0.02284548  0.35223990  0.57907841     0.29730
C434        C  0.05086694  0.36003115  0.61017018    -0.21090
C435        C  0.09103358  0.34338407  0.60906529    -0.09140
C436        C  0.09729621  0.31088257  0.58060557     0.29730
F437        F  0.13532103  0.29436600  0.57642838    -0.19670
H438        H  0.07211231  0.27836612  0.52797829     0.18100
H439        H  0.04222397  0.38482325  0.63002997     0.18100
F440        F  0.99103844  0.37827004  0.57480230    -0.19660
C441        C  0.20227824  0.43441088  0.55442571    -0.21090
C442        C  0.17411468  0.44914300  0.52587483    -0.09130
C443        C  0.13455222  0.43145324  0.52547591     0.29730
C444        C  0.12416399  0.39969969  0.55222941    -0.21090
C445        C  0.15043953  0.38752871  0.58527670    -0.09140
C446        C  0.19091765  0.40522194  0.58468889     0.29730
F447        F  0.21855663  0.39811256  0.61486332    -0.19670
H448        H  0.23071015  0.45133312  0.55706729     0.18100
H449        H  0.09220327  0.39085070  0.55075912     0.18100
F450        F  0.10408036  0.44737018  0.50185839    -0.19660
C451        C  0.09126897  0.39863804  0.68856221    -0.21090
C452        C  0.11190835  0.40656861  0.65102053    -0.09130
C453        C  0.10455327  0.44553834  0.63304708     0.29730
C454        C  0.07331562  0.47041993  0.64604820    -0.21090
C455        C  0.05308982  0.46283285  0.68259671    -0.09140
C456        C  0.06231307  0.42651297  0.70424017     0.29730
F457        F  0.04179546  0.41614146  0.73853604    -0.19670
H458        H  0.09463221  0.36929407  0.70382668     0.18100
H459        H  0.06713437  0.49831819  0.62893547     0.18100
F460        F  0.12688575  0.46129780  0.60255598    -0.19660
C461        C  0.42047051  0.33550410  0.53180229    -0.21090
C462        C  0.45202043  0.31017804  0.54503200    -0.09130
C463        C  0.44927968  0.29615647  0.58624810     0.29730
C464        C  0.41884228  0.31091848  0.61267495    -0.21090
C465        C  0.38815501  0.33821391  0.59891523    -0.09140
C466        C  0.38622904  0.34348889  0.55592895     0.29730
F467        F  0.35291345  0.35716640  0.53608865    -0.19670
H468        H  0.42419343  0.35292514  0.50427567     0.18100
H469        H  0.42342348  0.30550996  0.64505264     0.18100
F470        F  0.48130901  0.27672217  0.60413689    -0.19660
C471        C  0.34791777  0.44519405  0.61712221    -0.21090
C472        C  0.34036995  0.40252618  0.61230738    -0.09130
C473        C  0.30694939  0.39207681  0.58686107     0.29730
C474        C  0.29628294  0.41929314  0.55524315    -0.21090
C475        C  0.31430238  0.45944827  0.55177195    -0.09140
C476        C  0.34056802  0.47176648  0.58454240     0.29730
F477        F  0.36683786  0.50430559  0.58233570    -0.19670
H478        H  0.36718657  0.45690197  0.64174181     0.18100
H479        H  0.27682979  0.40714740  0.53085742     0.18100
F480        F  0.29134188  0.35298419  0.58634501    -0.19660
C481        C  0.42222210  0.39421645  0.68830152    -0.21090
C482        C  0.40937134  0.39320926  0.64690553    -0.09130
C483        C  0.43205651  0.41844793  0.61894574     0.29730
C484        C  0.45908381  0.44908987  0.63280391    -0.21090
C485        C  0.46681065  0.45411475  0.67453525    -0.09140
C486        C  0.45217369  0.42344089  0.70154299     0.29730
F487        F  0.46548421  0.42263833  0.74085374    -0.19670
H488        H  0.40836001  0.37375031  0.71068187     0.18100
H489        H  0.47174202  0.47098022  0.61094306     0.18100
F490        F  0.42286515  0.41860582  0.57840005    -0.19660
C491        C  0.09221837  0.05796924  0.87467433    -0.21090
C492        C  0.10291722  0.09310763  0.85068867    -0.09130
C493        C  0.08053253  0.09775168  0.81328540     0.29730
C494        C  0.05009878  0.06843894  0.80120766    -0.21090
C495        C  0.04078175  0.03424144  0.82575380    -0.09140
C496        C  0.06031854  0.03125361  0.86374287     0.29730
F497        F  0.04438630  0.00562459  0.89259318    -0.19670
H498        H  0.10369565  0.05369009  0.90527399     0.18100
H499        H  0.03188791  0.07357131  0.77427959     0.18100
F500        F  0.08545455  0.13192092  0.78986712    -0.19660
C501        C  0.14868249  0.07940641  0.97551439    -0.21090
C502        C  0.17974544  0.05176141  0.96654183    -0.09130
C503        C  0.19821747  0.05455266  0.92750084     0.29730
C504        C  0.18398168  0.08357653  0.89846365    -0.21090
C505        C  0.15248817  0.11219842  0.90815166    -0.09140
C506        C  0.13890153  0.11121708  0.94970521     0.29730
F507        F  0.11327575  0.13810884  0.96685642    -0.19670
H508        H  0.13217532  0.07750258  0.00436769     0.18100
H509        H  0.19525354  0.08091371  0.86748081     0.18100
F510        F  0.22788512  0.02796128  0.91626799    -0.19660
C511        C  0.07394294  0.20738595  0.94676957    -0.21090
C512        C  0.04037281  0.18236815  0.96009376    -0.09130
C513        C  0.03073102  0.14743815  0.93677240     0.29730
C514        C  0.05112628  0.13944139  0.90056988    -0.21090
C515        C  0.08996743  0.15790608  0.89201768    -0.09140
C516        C  0.09904606  0.19519497  0.91338329     0.29730
F517        F  0.13545425  0.21555062  0.90729656    -0.19670
H518        H  0.08352816  0.23387189  0.96467626     0.18100
H519        H  0.03933089  0.11326083  0.88407260     0.18100
F520        F  0.00640891  0.11684875  0.95177090    -0.19660
C521        C  0.07562629  0.30825228  0.89189164    -0.21090
C522        C  0.09944507  0.34383703  0.90112624    -0.09130
C523        C  0.09863463  0.35565959  0.94318790     0.29730
C524        C  0.06688398  0.34315312  0.96900092    -0.21090
C525        C  0.03918863  0.31168079  0.95811540    -0.09140
C526        C  0.04601008  0.29256351  0.91954709     0.29730
F527        F  0.02019240  0.26252674  0.90561324    -0.19670
H528        H  0.07600632  0.29482806  0.86164513     0.18100
H529        H  0.06241214  0.36127481  0.99610562     0.18100
F530        F  0.12778497  0.37953387  0.96088121    -0.19660
C531        C  0.02062654  0.41922208  0.82450188    -0.21090
C532        C  0.03681114  0.45810174  0.81283333    -0.09130
C533        C  0.08003453  0.45883848  0.80398313     0.29730
C534        C  0.10555212  0.42569011  0.81341885    -0.21090
C535        C  0.09045904  0.39189931  0.83617680    -0.09140
C536        C  0.04678370  0.38656121  0.83556185     0.29730
F537        F  0.02868853  0.34946979  0.84214032    -0.19670
H538        H  0.98810001  0.41295899  0.82539615     0.18100
H539        H  0.13856714  0.42990608  0.80923060     0.18100
F540        F  0.09919399  0.49312783  0.78960059    -0.19660
C541        C  0.18591924  0.39973454  0.90683989    -0.21090
C542        C  0.14663480  0.40626307  0.88887602    -0.09130
C543        C  0.12533855  0.44164609  0.90263342     0.29730
C544        C  0.14303404  0.47006336  0.92987503    -0.21090
C545        C  0.17940259  0.46103540  0.95104639    -0.09140
C546        C  0.20038578  0.42490146  0.93941624     0.29730
F547        F  0.23021986  0.40971816  0.96416675    -0.19670
H548        H  0.20187121  0.37128445  0.90110703     0.18100
H549        H  0.12376072  0.49462561  0.94080660     0.18100
F550        F  0.08409874  0.44397771  0.89721205    -0.19660
C551        C  0.29502853  0.07868197  0.95210126    -0.21090
C552        C  0.31676432  0.04235624  0.96067854    -0.09130
C553        C  0.34847907  0.03168437  0.93324438     0.29730
C554        C  0.35749449  0.05601870  0.89896358    -0.21090
C555        C  0.34051404  0.09589526  0.89409783    -0.09140
C556        C  0.30669006  0.10523725  0.91981779     0.29730
F557        F  0.28874489  0.14266350  0.91770622    -0.19670
H558        H  0.27141408  0.08866182  0.97305926     0.18100
H559        H  0.38369384  0.04621533  0.88142885     0.18100
F560        F  0.37597777  0.00209946  0.94283748    -0.19660
C561        C  0.38865847  0.08920813  0.81268865    -0.21090
C562        C  0.40111473  0.11279370  0.84688304    -0.09130
C563        C  0.44211557  0.10697324  0.86070849     0.29730
C564        C  0.46342348  0.07198365  0.85018918    -0.21090
C565        C  0.45013211  0.04606448  0.81840533    -0.09140
C566        C  0.41280080  0.05675330  0.79858754     0.29730
F567        F  0.39603732  0.03304234  0.76924246    -0.19670
H568        H  0.35796327  0.09233397  0.79988401     0.18100
H569        H  0.48847461  0.06405236  0.87014920     0.18210
F570        F  0.46138489  0.13243593  0.88715262    -0.19660
C571        C  0.39745005  0.13404992  0.94700885    -0.21090
C572        C  0.38894841  0.15652132  0.91087860    -0.09130
C573        C  0.41284228  0.19384027  0.90613184     0.29730
C574        C  0.44265706  0.20586662  0.93591424    -0.21090
C575        C  0.45086319  0.18133453  0.97002268    -0.09140
C576        C  0.42963225  0.14409506  0.97291905     0.29730
F577        F  0.44449778  0.11413334  0.99688266    -0.19670
H578        H  0.38396459  0.10466494  0.95344067     0.18100
H579        H  0.46124649  0.23280713  0.93098403     0.18100
F580        F  0.41273208  0.21598090  0.87109627    -0.19660
C581        C  0.35532610  0.39004351  0.95373104    -0.21090
C582        C  0.33855880  0.39034381  0.91401741    -0.09130
C583        C  0.30860613  0.42128366  0.90639505     0.29730
C584        C  0.29827952  0.45015847  0.93716857    -0.21090
C585        C  0.31948866  0.45089176  0.97494318    -0.09140
C586        C  0.35054566  0.42233434  0.98052231     0.29730
F587        F  0.37922690  0.42766370  0.01065780    -0.19670
H588        H  0.38001762  0.37074622  0.96170343     0.18100
H589        H  0.27521073  0.47286307  0.93077193     0.18100
F590        F  0.29227535  0.42665069  0.86851883    -0.19660
C591        C  0.43944087  0.34650312  0.88542606    -0.21090
C592        C  0.39783384  0.33968019  0.89510060    -0.09130
C593        C  0.38985326  0.30825800  0.92442686     0.29730
C594        C  0.42206956  0.29578724  0.95111802    -0.21090
C595        C  0.46174601  0.31502468  0.94911733    -0.09140
C596        C  0.46866663  0.34196787  0.91580555     0.29730
F597        F  0.50181356  0.36803294  0.91451290    -0.19670
H598        H  0.44840651  0.36406908  0.85878607     0.18100
H599        H  0.41508521  0.27394913  0.97522079     0.18100
F600        F  0.35052966  0.29516734  0.93179946    -0.19660
C601        C  0.38509993  0.41950448  0.81888474    -0.21090
C602        C  0.38766722  0.40870950  0.86047141    -0.09130
C603        C  0.41567929  0.43255442  0.88549243     0.29730
C604        C  0.44131174  0.46269244  0.86892012    -0.21090
C605        C  0.44093646  0.47089079  0.82712424    -0.09140
C606        C  0.41070139  0.45062236  0.80269320     0.29730
F607        F  0.40539791  0.46008877  0.76305389    -0.19670
H608        H  0.36405422  0.40358487  0.79826314     0.18100
H609        H  0.46297422  0.47887531  0.88890447     0.18100
F610        F  0.42306590  0.42366043  0.92532015    -0.19660
N611        N  0.17147027  0.69885887  0.20125967    -0.05900
N612        N  0.14258333  0.68811424  0.17424476    -0.58020
N613        N  0.19628548  0.67104551  0.29639906    -0.05580
N614        N  0.18658426  0.64261589  0.32408245    -0.60150
N615        N  0.16801743  0.69988750  0.29599029    -0.05180
N616        N  0.13911419  0.69154132  0.32369128    -0.58000
N617        N  0.20101854  0.67129269  0.20171342    -0.04860
N618        N  0.19271706  0.64186109  0.17470328    -0.60500
C619        C  0.15672697  0.65315991  0.15669057     0.96270
C620        C  0.15108852  0.65578538  0.34160236     0.96050
N621        N  0.32410577  0.70233871  0.30159197    -0.06090
N622        N  0.35257366  0.69410001  0.32932336    -0.58600
N623        N  0.30216113  0.67094539  0.20641333    -0.04210
N624        N  0.31443819  0.64163633  0.18076217    -0.59850
N625        N  0.33019179  0.70086185  0.20780522    -0.06120
N626        N  0.36151479  0.69220381  0.18328055    -0.58870
N627        N  0.29554491  0.67304207  0.30110589    -0.03850
N628        N  0.30413538  0.64479388  0.32905592    -0.59940
Mn629      Mn  0.24860337  0.67076526  0.25117476     1.18440
C630        C  0.33965901  0.65868941  0.34727930     0.98360
C631        C  0.35166655  0.65512897  0.16595103     0.99020
N632        N  0.16719124  0.79939275  0.29495327    -0.06140
N633        N  0.13735879  0.80817673  0.32108968    -0.62450
N634        N  0.19889123  0.82814522  0.20139085    -0.04940
N635        N  0.19019394  0.85715196  0.17422297    -0.63120
N636        N  0.17086551  0.79828688  0.19942124    -0.05640
N637        N  0.14336999  0.80640996  0.17026345    -0.62710
N638        N  0.19603071  0.82844582  0.29622287    -0.04540
N639        N  0.18624021  0.85713635  0.32329630    -0.63400
Mn640      Mn  0.16855058  0.74907155  0.24786422     1.10660
C641        C  0.14980471  0.84383756  0.33959664     0.99580
C642        C  0.15599901  0.84309851  0.15387728     0.99660
N643        N  0.32783181  0.80103761  0.20786435    -0.05650
N644        N  0.35796389  0.81052770  0.18208518    -0.61020
N645        N  0.29490106  0.82959934  0.30045587    -0.04970
N646        N  0.30319087  0.85846851  0.32827215    -0.57750
N647        N  0.32316482  0.80085379  0.30180602    -0.06280
N648        N  0.35075575  0.80970312  0.33061857    -0.60590
N649        N  0.29885475  0.82910683  0.20629546    -0.05270
N650        N  0.30880796  0.85782615  0.17917565    -0.57780
Mn651      Mn  0.32680218  0.75136158  0.25462058     1.20190
Mn652      Mn  0.24714801  0.82953828  0.25099424     1.10090
Cl653      Cl  0.24774735  0.75010285  0.25077488    -0.85750
C654        C  0.34581527  0.84595578  0.16401252     0.96590
C655        C  0.33806347  0.84564164  0.34743401     0.96380
C656        C  0.36436724  0.87047410  0.37892158    -0.02270
C657        C  0.36734866  0.63195202  0.37465965    -0.02270
C658        C  0.12156708  0.87052543  0.36667641    -0.02270
C659        C  0.12471569  0.63062215  0.37279320    -0.02270
C660        C  0.46970135  0.50427829  0.31290592     0.00780
C661        C  0.01274454  0.49901099  0.31323337     0.00780
C662        C  0.37011409  0.86948380  0.13070600    -0.02270
C663        C  0.12872362  0.86980581  0.12509420    -0.02270
C664        C  0.49729726  0.80860953  0.47928623     0.00780
C665        C  0.49297788  0.80974050  0.02215289     0.00780
C666        C  0.12920360  0.62296759  0.13247970    -0.02270
C667        C  0.48515977  0.49459794  0.18847553     0.00780
C668        C  0.02744454  0.49780090  0.19741353     0.00780
C669        C  0.18587181  0.97964005  0.99327059     0.00780
C670        C  0.19031139  0.52193514  0.00046611     0.00780
C671        C  0.47840777  0.69337542  0.00573734     0.00780
C672        C  0.02089940  0.68745227  0.00170327     0.00780
C673        C  0.37945515  0.63388356  0.13287136    -0.02270
C674        C  0.31276806  0.98071754  0.00969899     0.00780
C675        C  0.31298019  0.52300156  0.00310923     0.00780
C676        C  0.31639937  0.58777369  0.10338061    -0.21090
C677        C  0.35597855  0.60698443  0.09957941    -0.09130
C678        C  0.37870892  0.59579231  0.06465057     0.29730
C679        C  0.36260693  0.57165167  0.03349574    -0.21090
C680        C  0.32376051  0.55311455  0.03665122    -0.09140
C681        C  0.30114982  0.56011303  0.07289252     0.29730
F682        F  0.26738102  0.53677503  0.08123701    -0.19670
H683        H  0.29822226  0.59089001  0.13068731     0.18100
H684        H  0.38290981  0.56333209  0.00867726     0.18100
F685        F  0.41852800  0.60639589  0.06160117    -0.19660
C686        C  0.44147914  0.68528924  0.11921014    -0.21090
C687        C  0.40125693  0.67089696  0.10987386    -0.09130
C688        C  0.38374742  0.68804567  0.07422388     0.29730
C689        C  0.40973206  0.70236052  0.04288277    -0.21090
C690        C  0.45344311  0.69860106  0.04589548    -0.09140
C691        C  0.46855598  0.69631707  0.08681685     0.29730
F692        F  0.50848722  0.70429070  0.09670322    -0.19670
H693        H  0.45436424  0.68020225  0.14946600     0.18100
H694        H  0.39505681  0.71141170  0.01448769     0.18100
F695        F  0.34240518  0.68521062  0.06701965    -0.19660
C696        C  0.47219473  0.55727828  0.14620350    -0.21090
C697        C  0.45839506  0.53070082  0.17653983    -0.09130
C698        C  0.41624895  0.53408604  0.18680956     0.29730
C699        C  0.39355576  0.56958007  0.17662475    -0.21090
C700        C  0.41050697  0.60154003  0.15207423    -0.09140
C701        C  0.45126802  0.59309290  0.13662923     0.29730
F702        F  0.47232928  0.61642006  0.10975215    -0.19670
H703        H  0.50134038  0.55145984  0.13109852     0.18100
H704        H  0.36122838  0.57025517  0.18501544     0.18100
F705        F  0.39515232  0.50100476  0.20121210    -0.19660
C706        C  0.06741264  0.61810479  0.08373678    -0.21090
C707        C  0.09947231  0.64291430  0.10098919    -0.09130
C708        C  0.10724992  0.68144342  0.08215812     0.29730
C709        C  0.08319288  0.69421239  0.04887909    -0.21090
C710        C  0.04780738  0.67214956  0.03598000    -0.09140
C711        C  0.04150614  0.63268496  0.05263144     0.29730
F712        F  0.01177188  0.60710969  0.03740493    -0.19670
H713        H  0.06253629  0.58679914  0.09430195     0.18100
H714        H  0.09396695  0.72048068  0.03217621     0.18100
F715        F  0.13970826  0.70591487  0.09334626    -0.19660
C716        C  0.15006066  0.55161448  0.10333780    -0.21090
C717        C  0.15624282  0.59454894  0.10487707    -0.09130
C718        C  0.18551259  0.61093605  0.07664231     0.29730
C719        C  0.20276784  0.58577101  0.04601864    -0.21090
C720        C  0.19252367  0.54314303  0.04310081    -0.09140
C721        C  0.17371594  0.52675563  0.07814339     0.29730
F722        F  0.19401260  0.49777996  0.09944163    -0.19670
H723        H  0.12935964  0.53579495  0.12357546     0.18100
H724        H  0.22060614  0.60058265  0.02207874     0.18100
F725        F  0.19512299  0.65168625  0.07623951    -0.19660
C726        C  0.03880886  0.57816416  0.19789291    -0.21090
C727        C  0.05387223  0.53796647  0.20317589    -0.09130
C728        C  0.09796398  0.53633739  0.20577594     0.29730
C729        C  0.12270740  0.56816312  0.18960730    -0.21090
C730        C  0.10424793  0.59944169  0.16648319    -0.09140
C731        C  0.06292983  0.60813094  0.17734318     0.29730
F732        F  0.04556620  0.64458969  0.16742067    -0.19670
H733        H  0.00787928  0.58593739  0.20704266     0.18100
H734        H  0.15583503  0.56394964  0.18836681     0.18100
F735        F  0.11777671  0.50175358  0.21734688    -0.19660
C736        C  0.06596360  0.79962226  0.05217131    -0.21090
C737        C  0.02847758  0.82042970  0.05078119    -0.09130
C738        C  0.02284882  0.85224730  0.07907622     0.29730
C739        C  0.05086874  0.86003781  0.11016991    -0.21090
C740        C  0.09103360  0.84338548  0.10906997    -0.09140
C741        C  0.09729259  0.81087760  0.08061638     0.29730
F742        F  0.13531482  0.79435409  0.07644448    -0.19670
H743        H  0.07210335  0.77835210  0.02799571     0.18100
H744        H  0.04222682  0.88483183  0.13002779     0.18100
F745        F  0.99104523  0.87828049  0.07479392    -0.19660
C746        C  0.20227986  0.93441981  0.05443372    -0.21090
C747        C  0.17411736  0.94913691  0.02587320    -0.09130
C748        C  0.13456172  0.93143064  0.02546730     0.29730
C749        C  0.12417888  0.89967869  0.05222367    -0.21090
C750        C  0.15044875  0.88752450  0.08528060    -0.09140
C751        C  0.19092105  0.90523296  0.08470021     0.29730
F752        F  0.21855345  0.89814273  0.11488555    -0.19670
H753        H  0.23070737  0.95135064  0.05707935     0.18100
H754        H  0.09222103  0.89082230  0.05074902     0.18100
F755        F  0.10408618  0.94733391  0.00184544    -0.19660
C756        C  0.09127635  0.89864362  0.18856332    -0.21090
C757        C  0.11191202  0.90657190  0.15101896    -0.09130
C758        C  0.10454559  0.94553664  0.13303778     0.29730
C759        C  0.07330804  0.97041695  0.14604169    -0.21090
C760        C  0.05308765  0.96283188  0.18259323    -0.09140
C761        C  0.06231681  0.92651563  0.20423954     0.29730
F762        F  0.04179994  0.91614353  0.23853574    -0.19670
H763        H  0.09464462  0.86930226  0.20383152     0.18100
H764        H  0.06711911  0.99831125  0.12892546     0.18100
F765        F  0.12686157  0.96129100  0.10253217    -0.19660
C766        C  0.42046369  0.83549875  0.03180119    -0.21090
C767        C  0.45202115  0.81018189  0.04503297    -0.09130
C768        C  0.44928228  0.79616088  0.08624957     0.29730
C769        C  0.41884236  0.81091824  0.11267591    -0.21090
C770        C  0.38815132  0.83820906  0.09891568    -0.09140
C771        C  0.38622095  0.84347867  0.05592904     0.29730
F772        F  0.35289704  0.85714035  0.03608962    -0.19670
H773        H  0.42418046  0.85291850  0.00427346     0.18100
H774        H  0.42342426  0.80551108  0.14505380     0.18100
F775        F  0.48131314  0.77672935  0.10413891    -0.19660
C776        C  0.34792060  0.94519280  0.11711595    -0.21090
C777        C  0.34036878  0.90252490  0.11230460    -0.09130
C778        C  0.30694577  0.89207721  0.08686037     0.29730
C779        C  0.29627707  0.91929392  0.05524308    -0.21090
C780        C  0.31430052  0.95944703  0.05176825    -0.09140
C781        C  0.34057136  0.97176386  0.08453482     0.29730
F782        F  0.36684498  0.00429987  0.08232215    -0.19670
H783        H  0.36719135  0.95690119  0.14173374     0.18100
H784        H  0.27681927  0.90714993  0.03086016     0.18100
F785        F  0.29133221  0.85298688  0.08634973    -0.19660
C786        C  0.42222040  0.89421398  0.18829994    -0.21090
C787        C  0.40936950  0.89320541  0.14690394    -0.09130
C788        C  0.43205625  0.91844115  0.11894293     0.29730
C789        C  0.45908328  0.94908398  0.13279980    -0.21090
C790        C  0.46680932  0.95411116  0.17453101    -0.09140
C791        C  0.45217301  0.92343810  0.20153993     0.29730
F792        F  0.46548537  0.92263600  0.24085015    -0.19670
H793        H  0.40835796  0.87374911  0.21068121     0.18100
H794        H  0.47174175  0.97097319  0.11093799     0.18100
F795        F  0.42286533  0.91859650  0.07839709    -0.19660
C796        C  0.09220138  0.55796443  0.37467799    -0.21090
C797        C  0.10290466  0.59309914  0.35068848    -0.09130
C798        C  0.08052173  0.59774027  0.31328393     0.29730
C799        C  0.05008729  0.56842721  0.30120785    -0.21090
C800        C  0.04076880  0.53423149  0.32575579    -0.09140
C801        C  0.06030208  0.53124760  0.36374687     0.29730
F802        F  0.04436466  0.50562413  0.39259970    -0.19670
H803        H  0.10367587  0.55368869  0.40527896     0.18100
H804        H  0.03187654  0.57355760  0.27427964     0.18100
F805        F  0.08544636  0.63190705  0.28986258    -0.19660
C806        C  0.14867752  0.57939633  0.47550948    -0.21090
C807        C  0.17974726  0.55175912  0.46653792    -0.09130
C808        C  0.19821825  0.55455246  0.42749682     0.29730
C809        C  0.18397615  0.58357278  0.39845919    -0.21090
C810        C  0.15247873  0.61219048  0.40814759    -0.09140
C811        C  0.13888961  0.61120433  0.44970050     0.29730
F812        F  0.11324892  0.63808299  0.46684951    -0.19670
H813        H  0.13216910  0.57748754  0.50436190     0.18100
H814        H  0.19524796  0.58091097  0.36747634     0.18100
F815        F  0.22788990  0.52796526  0.41626414    -0.19660
C816        C  0.07394345  0.70737990  0.44677052    -0.21090
C817        C  0.04036951  0.68236582  0.46009237    -0.09130
C818        C  0.03072194  0.64743981  0.43676660     0.29730
C819        C  0.05111620  0.63944383  0.40056287    -0.21090
C820        C  0.08996124  0.65790212  0.39201467    -0.09140
C821        C  0.09904578  0.69518738  0.41338436     0.29730
F822        F  0.13545777  0.71553713  0.40730066    -0.19670
H823        H  0.08353187  0.73386442  0.46467918     0.18100
H824        H  0.03931754  0.61326648  0.38406230     0.18100
F825        F  0.00639707  0.61685137  0.45176300    -0.19660
C826        C  0.07562653  0.80825262  0.39189404    -0.21090
C827        C  0.09944543  0.84383711  0.40112893    -0.09130
C828        C  0.09863733  0.85565806  0.44319147     0.29730
C829        C  0.06688798  0.84315016  0.46900532    -0.21090
C830        C  0.03919131  0.81167915  0.45811879    -0.09140
C831        C  0.04601166  0.79256285  0.41955000     0.29730
F832        F  0.02019365  0.76252652  0.40561608    -0.19670
H833        H  0.07600489  0.79482978  0.36164688     0.18100
H834        H  0.06241803  0.86127045  0.49611139     0.18100
F835        F  0.12778712  0.87953361  0.46088476    -0.19660
C836        C  0.02062638  0.91922460  0.32450195    -0.21090
C837        C  0.03681193  0.95810307  0.31283119    -0.09130
C838        C  0.08003559  0.95883841  0.30398235     0.29730
C839        C  0.10555214  0.92568976  0.31342015    -0.21090
C840        C  0.09045801  0.89190001  0.33617911    -0.09140
C841        C  0.04678240  0.88656372  0.33556502     0.29730
F842        F  0.02868555  0.84947429  0.34214952    -0.19670
H843        H  0.98809976  0.91296297  0.32539599     0.18100
H844        H  0.13856728  0.92990462  0.30923192     0.18100
F845        F  0.09919604  0.99312650  0.28959800    -0.19660
C846        C  0.18591834  0.89973573  0.40684031    -0.21090
C847        C  0.14663306  0.90626324  0.38887792    -0.09130
C848        C  0.12533540  0.94164483  0.40263682     0.29730
C849        C  0.14303042  0.97006181  0.42987863    -0.21090
C850        C  0.17939985  0.96103443  0.45104866    -0.09140
C851        C  0.20038462  0.92490217  0.43941692     0.29730
F852        F  0.23022010  0.90971968  0.46416618    -0.19670
H853        H  0.20187138  0.87128650  0.40110633     0.18100
H854        H  0.12375664  0.99462345  0.44081092     0.18100
F855        F  0.08409517  0.94397492  0.39721681    -0.19660
C856        C  0.29502782  0.57868308  0.45210558    -0.21090
C857        C  0.31676403  0.54235765  0.46068305    -0.09130
C858        C  0.34847753  0.53168454  0.43324816     0.29730
C859        C  0.35749119  0.55601736  0.39896646    -0.21090
C860        C  0.34051066  0.59589374  0.39409973    -0.09140
C861        C  0.30668783  0.60523701  0.41982059     0.29730
F862        F  0.28874255  0.64266316  0.41770812    -0.19670
H863        H  0.27141431  0.58866362  0.47306425     0.18100
H864        H  0.38369018  0.54621300  0.38143206     0.18100
F865        F  0.37597826  0.50210144  0.44284137    -0.19660
C866        C  0.38864579  0.58919734  0.31269086    -0.21090
C867        C  0.40110725  0.61278798  0.34688001    -0.09130
C868        C  0.44210865  0.60696728  0.36070208     0.29730
C869        C  0.46341247  0.57197367  0.35018763    -0.21090
C870        C  0.45011701  0.54604936  0.31840909    -0.09140
C871        C  0.41278307  0.55673657  0.29859436     0.29730
F872        F  0.39601101  0.53301963  0.26925876    -0.19670
H873        H  0.35794912  0.59232268  0.29988956     0.18100
H874        H  0.48846375  0.56404470  0.37014803     0.18210
F875        F  0.46138171  0.63243394  0.38713982    -0.19660
C876        C  0.39744788  0.63404927  0.44700867    -0.21090
C877        C  0.38894838  0.65651833  0.41087652    -0.09130
C878        C  0.41284389  0.69383608  0.40612778     0.29730
C879        C  0.44265709  0.70586436  0.43591110    -0.21090
C880        C  0.45085998  0.68133517  0.47002254    -0.09140
C881        C  0.42962777  0.64409671  0.47292066     0.29730
F882        F  0.44449030  0.61413800  0.49688950    -0.19670
H883        H  0.38396114  0.60466523  0.45344287     0.18100
H884        H  0.46124761  0.73280386  0.43097942     0.18100
F885        F  0.41273866  0.71597167  0.37108892    -0.19660
C886        C  0.35532527  0.89004031  0.45372863    -0.21090
C887        C  0.33856132  0.89034402  0.41401382    -0.09130
C888        C  0.30860871  0.92128386  0.40639124     0.29730
C889        C  0.29828027  0.95015682  0.43716545    -0.21090
C890        C  0.31948827  0.95088899  0.47494060    -0.09140
C891        C  0.35054408  0.92233022  0.48052065     0.29730
F892        F  0.37922384  0.92765745  0.51065773    -0.19670
H893        H  0.38001555  0.87074189  0.46170195     0.18100
H894        H  0.27521180  0.97286159  0.43076857     0.18100
F895        F  0.29228116  0.92665386  0.36851406    -0.19660
C896        C  0.43944880  0.84651597  0.38543091    -0.21090
C897        C  0.39784101  0.83968578  0.39509806    -0.09130
C898        C  0.38986047  0.80825876  0.42441931     0.29730
C899        C  0.42207482  0.79578757  0.45111273    -0.21090
C900        C  0.46175007  0.81502806  0.44911863    -0.09140
C901        C  0.46867198  0.84197775  0.41581252     0.29730
F902        F  0.50181900  0.86804328  0.41452634    -0.19670
H903        H  0.44841616  0.86408570  0.35879432     0.18100
H904        H  0.41508945  0.77394640  0.47521252     0.18100
F905        F  0.35053739  0.79516237  0.43178498    -0.19660
C906        C  0.38510274  0.91950647  0.31888021    -0.21090
C907        C  0.38766821  0.90871405  0.36046767    -0.09130
C908        C  0.41567600  0.93256316  0.38548938     0.29730
C909        C  0.44130924  0.96270026  0.36891655    -0.21090
C910        C  0.44093714  0.97089494  0.32711993    -0.09140
C911        C  0.41070362  0.95062483  0.30268853     0.29730
F912        F  0.40540097  0.96009056  0.26304901    -0.19670
H913        H  0.36405916  0.90358440  0.29825831     0.18100
H914        H  0.46296959  0.97888548  0.38890129     0.18100
F915        F  0.42305846  0.92367342  0.42531881    -0.19660
N916        N  0.17147110  0.69885876  0.70126022    -0.05900
N917        N  0.14258364  0.68811320  0.67424615    -0.58020
N918        N  0.19628772  0.67104827  0.79640019    -0.05580
N919        N  0.18658725  0.64261993  0.82408505    -0.60150
N920        N  0.16801945  0.69989002  0.79599071    -0.05180
N921        N  0.13911669  0.69154494  0.82369247    -0.58000
N922        N  0.20101973  0.67129297  0.70171391    -0.04860
N923        N  0.19271814  0.64186099  0.67470411    -0.60500
C924        C  0.15672747  0.65315899  0.65669180     0.96270
C925        C  0.15109172  0.65579003  0.84160495     0.96050
N926        N  0.32410785  0.70234061  0.80159246    -0.06090
N927        N  0.35257595  0.69410196  0.82932373    -0.58600
N928        N  0.30216270  0.67094624  0.70641376    -0.04210
N929        N  0.31443954  0.64163717  0.68076246    -0.59850
N930        N  0.33019329  0.70086276  0.70780535    -0.06120
N931        N  0.36151596  0.69220483  0.68328017    -0.58870
N932        N  0.29554710  0.67304383  0.80110649    -0.03850
N933        N  0.30413786  0.64479564  0.82905649    -0.59940
Mn934      Mn  0.24860512  0.67076667  0.75117539     1.18440
C935        C  0.33966158  0.65869120  0.84727971     0.98360
C936        C  0.35166762  0.65512994  0.66595071     0.99020
N937        N  0.16719255  0.79939413  0.79495203    -0.06140
N938        N  0.13736021  0.80817742  0.82108875    -0.62450
N939        N  0.19889147  0.82814621  0.70138948    -0.04940
N940        N  0.19019291  0.85715298  0.67422190    -0.63120
N941        N  0.17086656  0.79828709  0.69941991    -0.05640
N942        N  0.14337068  0.80640941  0.67026225    -0.62710
N943        N  0.19603152  0.82844770  0.79622136    -0.04540
N944        N  0.18624058  0.85713822  0.82329465    -0.63400
Mn945      Mn  0.16855203  0.74907255  0.74786370     1.10660
C946        C  0.14980552  0.84383859  0.83959532     0.99580
C947        C  0.15599843  0.84309832  0.65387602     0.99660
N948        N  0.32783253  0.80103822  0.70786361    -0.05650
N949        N  0.35796468  0.81052805  0.68208454    -0.61020
N950        N  0.29490289  0.82960231  0.80045406    -0.04970
N951        N  0.30319367  0.85847297  0.82826860    -0.57750
N952        N  0.32316680  0.80085681  0.80180480    -0.06280
N953        N  0.35075878  0.80970775  0.83061601    -0.60590
N954        N  0.29885534  0.82910728  0.70629419    -0.05270
N955        N  0.30880855  0.85782624  0.67917413    -0.57780
Mn956      Mn  0.32680369  0.75136313  0.75462038     1.20190
Mn957      Mn  0.24714885  0.82953986  0.75099280     1.10090
Cl958      Cl  0.24774883  0.75010429  0.75077453    -0.85750
C959        C  0.34581598  0.84595578  0.66401141     0.96590
C960        C  0.33806704  0.84564720  0.84742989     0.96380
C961        C  0.36436981  0.87048027  0.87891787    -0.02270
C962        C  0.36735108  0.63195428  0.87466109    -0.02270
C963        C  0.12156744  0.87052492  0.86667583    -0.02270
C964        C  0.12471913  0.63062665  0.87279550    -0.02270
C965        C  0.46970656  0.50428415  0.81290677     0.00780
C966        C  0.01274949  0.49901580  0.81323481     0.00780
C967        C  0.37011474  0.86948362  0.63070497    -0.02270
C968        C  0.12872092  0.86980497  0.62509427    -0.02270
C969        C  0.49729820  0.80861346  0.97928565     0.00780
C970        C  0.49297723  0.80973693  0.52215338     0.00780
C971        C  0.12920444  0.62296594  0.63248083    -0.02270
C972        C  0.48515976  0.49459815  0.68847480     0.00780
C973        C  0.02744433  0.49780150  0.69741385     0.00780
C974        C  0.18587284  0.97963939  0.49327160     0.00780
C975        C  0.19031521  0.52193482  0.50046481     0.00780
C976        C  0.47840752  0.69337284  0.50573560     0.00780
C977        C  0.02089884  0.68744760  0.50170185     0.00780
C978        C  0.37945592  0.63388459  0.63287056    -0.02270
C979        C  0.31276830  0.98071771  0.50969974     0.00780
C980        C  0.31298031  0.52300172  0.50310987     0.00780
C981        C  0.31639934  0.58777713  0.60337877    -0.21090
C982        C  0.35597948  0.60698565  0.59957848    -0.09130
C983        C  0.37871028  0.59579232  0.56465015     0.29730
C984        C  0.36260836  0.57165105  0.53349569    -0.21090
C985        C  0.32376138  0.55311518  0.53665104    -0.09140
C986        C  0.30114984  0.56011619  0.57289114     0.29730
F987        F  0.26738049  0.53677960  0.58123561    -0.19670
H988        H  0.29822122  0.59089521  0.63068457     0.18100
H989        H  0.38291120  0.56333055  0.50867746     0.18100
F990        F  0.41852940  0.60639583  0.56160066    -0.19660
C991        C  0.44147962  0.68528946  0.61920865    -0.21090
C992        C  0.40125724  0.67089780  0.60987297    -0.09130
C993        C  0.38374756  0.68804605  0.57422288     0.29730
C994        C  0.40973210  0.70235928  0.54288108    -0.21090
C995        C  0.45344312  0.69859923  0.54589363    -0.09140
C996        C  0.46855629  0.69631578  0.58681489     0.29730
F997        F  0.50848754  0.70428910  0.59670104    -0.19670
H998        H  0.45436488  0.68020287  0.64946451     0.18100
H999        H  0.39505662  0.71140961  0.51448588     0.18100
F1000       F  0.34240521  0.68521147  0.56701914    -0.19660
C1001       C  0.47219521  0.55727847  0.64620234    -0.21090
C1002       C  0.45839502  0.53070093  0.67653841    -0.09130
C1003       C  0.41624864  0.53408621  0.68680718     0.29730
C1004       C  0.39355602  0.56958062  0.67662276    -0.21090
C1005       C  0.41050778  0.60154080  0.65207301    -0.09140
C1006       C  0.45126899  0.59309348  0.63662823     0.29730
F1007       F  0.47233087  0.61642052  0.60975138    -0.19670
H1008       H  0.50134109  0.55145997  0.63109777     0.18100
H1009       H  0.36122856  0.57025587  0.68501314     0.18100
F1010       F  0.39515132  0.50100537  0.70120974    -0.19660
C1011       C  0.06741634  0.61809921  0.58373360    -0.21090
C1012       C  0.09947249  0.64291121  0.60098925    -0.09130
C1013       C  0.10724452  0.68144374  0.58216268     0.29730
C1014       C  0.08318732  0.69421131  0.54888371    -0.21090
C1015       C  0.04780657  0.67214504  0.53597926    -0.09140
C1016       C  0.04150903  0.63267856  0.55262809     0.29730
F1017       F  0.01177762  0.60710139  0.53739908    -0.19670
H1018       H  0.06254321  0.58679224  0.59429693     0.18100
H1019       H  0.09395833  0.72048766  0.53218278     0.18100
F1020       F  0.13969796  0.70591965  0.59335500    -0.19660
C1021       C  0.15008042  0.55161194  0.60334873    -0.21090
C1022       C  0.15624636  0.59454891  0.60487828    -0.09130
C1023       C  0.18550668  0.61094031  0.57663634     0.29730
C1024       C  0.20276256  0.58577705  0.54601177    -0.21090
C1025       C  0.19252703  0.54314691  0.54309795    -0.09140
C1026       C  0.17373258  0.52675731  0.57814640     0.29730
F1027       F  0.19403265  0.49777546  0.59943257    -0.19670
H1028       H  0.12939243  0.53578753  0.62359517     0.18100
H1029       H  0.22059379  0.60059122  0.52206823     0.18100
F1030       F  0.19510747  0.65169251  0.57622837    -0.19660
C1031       C  0.03880738  0.57816467  0.69789319    -0.21090
C1032       C  0.05387098  0.53796746  0.70317815    -0.09130
C1033       C  0.09796264  0.53633954  0.70578095     0.29730
C1034       C  0.12270624  0.56816581  0.68961328    -0.21090
C1035       C  0.10424731  0.59944079  0.66648396    -0.09140
C1036       C  0.06292843  0.60813011  0.67734159     0.29730
F1037       F  0.04556468  0.64458812  0.66741658    -0.19670
H1038       H  0.00787768  0.58593810  0.70704238     0.18100
H1039       H  0.15583431  0.56395417  0.68837674     0.18100
F1040       F  0.11777548  0.50175598  0.71735230    -0.19660
C1041       C  0.06596548  0.79962459  0.55216779    -0.21090
C1042       C  0.02847687  0.82042694  0.55078159    -0.09130
C1043       C  0.02284639  0.85224196  0.57907947     0.29730
C1044       C  0.05086676  0.86003261  0.61017251    -0.21090
C1045       C  0.09103270  0.84338354  0.60906973    -0.09140
C1046       C  0.09729403  0.81087922  0.58061269     0.29730
F1047       F  0.13531782  0.79435998  0.57643785    -0.19670
H1048       H  0.07210927  0.77835611  0.52798590     0.18100
H1049       H  0.04222429  0.88482604  0.63003117     0.18100
F1050       F  0.99104124  0.87827363  0.57479988    -0.19660
C1051       C  0.20227710  0.93441031  0.55442705    -0.21090
C1052       C  0.17411312  0.94913948  0.52587485    -0.09130
C1053       C  0.13455249  0.93144486  0.52547440     0.29730
C1054       C  0.12416579  0.89969285  0.55222991    -0.21090
C1055       C  0.15044062  0.88752588  0.58527885    -0.09140
C1056       C  0.19091764  0.90522186  0.58469131     0.29730
F1057       F  0.21855594  0.89811643  0.61486739    -0.19670
H1058       H  0.23070817  0.95133426  0.55706872     0.18100
H1059       H  0.09220553  0.89084318  0.55076007     0.18100
F1060       F  0.10407927  0.94735671  0.50185537    -0.19660
C1061       C  0.09127068  0.89864001  0.68856400    -0.21090
C1062       C  0.11190947  0.90656919  0.65102170    -0.09130
C1063       C  0.10455275  0.94553767  0.63304597     0.29730
C1064       C  0.07331460  0.97041910  0.64604636    -0.21090
C1065       C  0.05308834  0.96283249  0.68259474    -0.09140
C1066       C  0.06231351  0.92651447  0.70424039     0.29730
F1067       F  0.04179697  0.91614441  0.73853731    -0.19670
H1068       H  0.09463525  0.86929711  0.70383020     0.18100
H1069       H  0.06713245  0.99831640  0.62893240     0.18100
F1070       F  0.12688263  0.96129532  0.60255202    -0.19660
C1071       C  0.42046624  0.83549889  0.53180111    -0.21090
C1072       C  0.45202063  0.81017863  0.54503267    -0.09130
C1073       C  0.44928046  0.79615747  0.58624906     0.29730
C1074       C  0.41884107  0.81091650  0.61267498    -0.21090
C1075       C  0.38815183  0.83820918  0.59891444    -0.09140
C1076       C  0.38622370  0.84348069  0.55592789     0.29730
F1077       F  0.35290350  0.85714866  0.53608744    -0.19670
H1078       H  0.42418581  0.85291940  0.50427404     0.18100
H1079       H  0.42342257  0.80550912  0.64505285     0.18100
F1080       F  0.48131082  0.77672586  0.60413910    -0.19660
C1081       C  0.34791855  0.94519195  0.61711754    -0.21090
C1082       C  0.34036885  0.90252400  0.61230433    -0.09130
C1083       C  0.30694754  0.89207532  0.58685881     0.29730
C1084       C  0.29628039  0.91929165  0.55524107    -0.21090
C1085       C  0.31430091  0.95944628  0.55176858    -0.09140
C1086       C  0.34056862  0.97176404  0.58453739     0.29730
F1087       F  0.36683940  0.00430247  0.58232832    -0.19670
H1088       H  0.36718828  0.95689998  0.64173628     0.18100
H1089       H  0.27682570  0.90714631  0.53085634     0.18100
F1090       F  0.29133701  0.85298382  0.58634554    -0.19660
C1091       C  0.42222124  0.89421340  0.68829822    -0.21090
C1092       C  0.40936982  0.89320562  0.64690249    -0.09130
C1093       C  0.43205540  0.91844265  0.61894173     0.29730
C1094       C  0.45908273  0.94908504  0.63279880    -0.21090
C1095       C  0.46680952  0.95411126  0.67452997    -0.09140
C1096       C  0.45217347  0.92343757  0.70153850     0.29730
F1097       F  0.46548541  0.92263468  0.74084878    -0.19670
H1098       H  0.40835938  0.87374785  0.71067923     0.18100
H1099       H  0.47174075  0.97097476  0.61093723     0.18100
F1100       F  0.42286400  0.91859882  0.57839604    -0.19660
C1101       C  0.09221023  0.55796670  0.87467716    -0.21090
C1102       C  0.10291005  0.59310356  0.85068942    -0.09130
C1103       C  0.08052517  0.59774594  0.81328616     0.29730
C1104       C  0.05009119  0.56843265  0.80120989    -0.21090
C1105       C  0.04077447  0.53423584  0.82575698    -0.09140
C1106       C  0.06031046  0.53125018  0.86374665     0.29730
F1107       F  0.04437586  0.50562456  0.89259890    -0.19670
H1108       H  0.10368642  0.55369017  0.90527758     0.18100
H1109       H  0.03187956  0.57356384  0.77428225     0.18100
F1110       F  0.08544753  0.63191407  0.78986634    -0.19660
C1111       C  0.14868221  0.57940623  0.97551336    -0.21090
C1112       C  0.17974611  0.55176235  0.96654031    -0.09130
C1113       C  0.19821652  0.55455327  0.92749863     0.29730
C1114       C  0.18397745  0.58357497  0.89846099    -0.21090
C1115       C  0.15248327  0.61219601  0.90814955    -0.09140
C1116       C  0.13889828  0.61121540  0.94970361     0.29730
F1117       F  0.11326985  0.63810503  0.96685436    -0.19670
H1118       H  0.13217576  0.57750214  0.00436704     0.18100
H1119       H  0.19524781  0.58091121  0.86747772     0.18100
F1120       F  0.22788544  0.52796323  0.91626564    -0.19660
C1121       C  0.07393922  0.70738546  0.94676785    -0.21090
C1122       C  0.04036963  0.68236820  0.96009416    -0.09130
C1123       C  0.03072641  0.64743774  0.93677395     0.29730
C1124       C  0.05112086  0.63943942  0.90057109    -0.21090
C1125       C  0.08996198  0.65790360  0.89201702    -0.09140
C1126       C  0.09904155  0.69519298  0.91338156     0.29730
F1127       F  0.13544983  0.71554804  0.90729354    -0.19670
H1128       H  0.08352512  0.73387235  0.96467359     0.18100
H1129       H  0.03932452  0.61325869  0.88407461     0.18100
F1130       F  0.00640265  0.61685003  0.95177367    -0.19660
C1131       C  0.07562347  0.80825320  0.89188918    -0.21090
C1132       C  0.09944721  0.84383357  0.90112648    -0.09130
C1133       C  0.09864659  0.85564727  0.94319078     0.29730
C1134       C  0.06689560  0.84314337  0.96900481    -0.21090
C1135       C  0.03919211  0.81167885  0.95811643    -0.09140
C1136       C  0.04600755  0.79256533  0.91954505     0.29730
F1137       F  0.02018541  0.76253337  0.90560954    -0.19670
H1138       H  0.07599882  0.79483350  0.86164046     0.18100
H1139       H  0.06242985  0.86126233  0.99611180     0.18100
F1140       F  0.12780724  0.87950931  0.96088502    -0.19660
C1141       C  0.02062815  0.91922970  0.82450313    -0.21090
C1142       C  0.03681549  0.95810724  0.81283263    -0.09130
C1143       C  0.08003922  0.95884092  0.80398459     0.29730
C1144       C  0.10555397  0.92569080  0.81342153    -0.21090
C1145       C  0.09045833  0.89190106  0.83617955    -0.09140
C1146       C  0.04678224  0.88656747  0.83556632     0.29730
F1147       F  0.02868224  0.84948012  0.84215325    -0.19670
H1148       H  0.98810135  0.91297011  0.82539718     0.18100
H1149       H  0.13856929  0.92990436  0.80923354     0.18100
F1150       F  0.09920191  0.99312898  0.78960306    -0.19660
C1151       C  0.18591985  0.89974115  0.90683550    -0.21090
C1152       C  0.14663089  0.90626332  0.88887914    -0.09130
C1153       C  0.12532944  0.94164059  0.90264282     0.29730
C1154       C  0.14302551  0.97006116  0.92988053    -0.21090
C1155       C  0.17939809  0.96103721  0.95104686    -0.09140
C1156       C  0.20038577  0.92490768  0.93941215     0.29730
F1157       F  0.23022309  0.90972632  0.96415985    -0.19670
H1158       H  0.20187629  0.87129449  0.90109857     0.18100
H1159       H  0.12375073  0.99462115  0.94081503     0.18100
F1160       F  0.08408766  0.94396388  0.89722892    -0.19660
C1161       C  0.29502826  0.57868263  0.95210396    -0.21090
C1162       C  0.31676520  0.54235793  0.96068254    -0.09130
C1163       C  0.34848030  0.53168580  0.93324909     0.29730
C1164       C  0.35749526  0.55601921  0.89896792    -0.21090
C1165       C  0.34051348  0.59589496  0.89410017    -0.09140
C1166       C  0.30668900  0.60523699  0.91981947     0.29730
F1167       F  0.28874259  0.64266253  0.91770630    -0.19670
H1168       H  0.27141343  0.58866244  0.97306146     0.18100
H1169       H  0.38369503  0.54621557  0.88143418     0.18100
F1170       F  0.37598011  0.50210211  0.94284314    -0.19660
C1171       C  0.38865259  0.58920313  0.81269157    -0.21090
C1172       C  0.40111180  0.61279138  0.84688312    -0.09130
C1173       C  0.44211233  0.60696910  0.86070805     0.29730
C1174       C  0.46341733  0.57197690  0.85019133    -0.21090
C1175       C  0.45012360  0.54605541  0.81841010    -0.09140
C1176       C  0.41279115  0.55674397  0.79859379     0.29730
F1177       F  0.39602200  0.53302938  0.76925471    -0.19670
H1178       H  0.35795685  0.59232942  0.79988833     0.18100
H1179       H  0.48846797  0.56404587  0.87015191     0.18210
F1180       F  0.46138324  0.63243189  0.88715095    -0.19660
C1181       C  0.39744623  0.63405339  0.94701157    -0.21090
C1182       C  0.38894878  0.65652142  0.91087832    -0.09130
C1183       C  0.41284538  0.69383837  0.90612914     0.29730
C1184       C  0.44265826  0.70586643  0.93591277    -0.21090
C1185       C  0.45086072  0.68133721  0.97002416    -0.09140
C1186       C  0.42962751  0.64409932  0.97292247     0.29730
F1187       F  0.44448937  0.61413995  0.99689070    -0.19670
H1188       H  0.38395745  0.60467050  0.95344683     0.18100
H1189       H  0.46124882  0.73280587  0.93098181     0.18100
F1190       F  0.41274095  0.71597348  0.87108997    -0.19660
C1191       C  0.35531963  0.89003704  0.95372713    -0.21090
C1192       C  0.33856149  0.89034712  0.91401000    -0.09130
C1193       C  0.30861165  0.92128935  0.90638708     0.29730
C1194       C  0.29828277  0.95016084  0.93716235    -0.21090
C1195       C  0.31948699  0.95088841  0.97493975    -0.09140
C1196       C  0.35053861  0.92232521  0.98052128     0.29730
F1197       F  0.37921672  0.92764768  0.01066063    -0.19670
H1198       H  0.38000658  0.87073541  0.96170217     0.18100
H1199       H  0.27521701  0.97286804  0.93076461     0.18100
F1200       F  0.29228890  0.92666371  0.86850844    -0.19660
C1201       C  0.43945431  0.84653110  0.88543369    -0.21090
C1202       C  0.39784593  0.83969429  0.89509450    -0.09130
C1203       C  0.38986569  0.80826243  0.92441072     0.29730
C1204       C  0.42207805  0.79579250  0.95110717    -0.21090
C1205       C  0.46175190  0.81503632  0.94911877    -0.09140
C1206       C  0.46867493  0.84199148  0.91581749     0.29730
F1207       F  0.50182267  0.86805665  0.91453623    -0.19670
H1208       H  0.44842310  0.86410382  0.85879981     0.18100
H1209       H  0.41509197  0.77394891  0.97520464     0.18100
F1210       F  0.35054326  0.79515995  0.93176958    -0.19660
C1211       C  0.38510656  0.91951335  0.81887727    -0.21090
C1212       C  0.38766841  0.90872228  0.86046527    -0.09130
C1213       C  0.41567192  0.93257391  0.88548923     0.29730
C1214       C  0.44130807  0.96270935  0.86891743    -0.21090
C1215       C  0.44094045  0.97090192  0.82712029    -0.09140
C1216       C  0.41070845  0.95063186  0.80268721     0.29730
F1217       F  0.40540824  0.96009837  0.76304770    -0.19670
H1218       H  0.36406525  0.90359000  0.79825401     0.18100
H1219       H  0.46296648  0.97889543  0.88890357     0.18100
F1220       F  0.42304790  0.92368705  0.92532053    -0.19660
N1221       N  0.67146996  0.19885831  0.20125886    -0.05900
N1222       N  0.64258224  0.18811310  0.17424505    -0.58020
N1223       N  0.69628816  0.17104668  0.29639796    -0.05580
N1224       N  0.68658903  0.14261846  0.32408336    -0.60150
N1225       N  0.66802003  0.19988859  0.29598949    -0.05180
N1226       N  0.63911881  0.19154385  0.32369280    -0.58000
N1227       N  0.70101836  0.17129224  0.20171221    -0.04860
N1228       N  0.69271631  0.14186027  0.17470264    -0.60500
C1229       C  0.65672564  0.15315873  0.15669088     0.96270
C1230       C  0.65109458  0.15578891  0.34160485     0.96050
N1231       N  0.82410713  0.20233769  0.30158879    -0.06090
N1232       N  0.85257513  0.19409950  0.32932022    -0.58600
N1233       N  0.80216083  0.17094471  0.20641004    -0.04210
N1234       N  0.81443703  0.14163567  0.18075838    -0.59850
N1235       N  0.83019174  0.20086096  0.20780182    -0.06120
N1236       N  0.86151428  0.19220263  0.18327665    -0.58870
N1237       N  0.79554626  0.17304121  0.30110324    -0.03850
N1238       N  0.80413657  0.14479368  0.32905404    -0.59940
Mn1239     Mn  0.74860416  0.17076498  0.25117255     1.18440
C1240       C  0.83966029  0.15868952  0.34727719     0.98360
C1241       C  0.85166544  0.15512784  0.16594703     0.99020
N1242       N  0.66719064  0.29939271  0.29495134    -0.06140
N1243       N  0.63735851  0.30817647  0.32108824    -0.62450
N1244       N  0.69889070  0.32814526  0.20138853    -0.04940
N1245       N  0.69019346  0.35715210  0.17422069    -0.63120
N1246       N  0.67086498  0.29828688  0.19941873    -0.05640
N1247       N  0.64336966  0.30641003  0.17026065    -0.62710
N1248       N  0.69603023  0.32844549  0.29622110    -0.04540
N1249       N  0.68624048  0.35713545  0.32329537    -0.63400
Mn1250     Mn  0.66855068  0.24907158  0.24786251     1.10660
C1251       C  0.64980503  0.34383675  0.33959594     0.99580
C1252       C  0.65599876  0.34309867  0.15387452     0.99660
N1253       N  0.82783195  0.30103756  0.20786299    -0.05650
N1254       N  0.85796483  0.31052862  0.18208501    -0.61020
N1255       N  0.79489839  0.32959705  0.30045549    -0.04970
N1256       N  0.80318496  0.35846312  0.32827594    -0.57750
N1257       N  0.82316213  0.30085151  0.30180516    -0.06280
N1258       N  0.85074973  0.30969775  0.33062152    -0.60590
N1259       N  0.79885494  0.32910687  0.20629446    -0.05270
N1260       N  0.80880905  0.35782718  0.17917604    -0.57780
Mn1261     Mn  0.82680208  0.25136071  0.25461810     1.20190
Mn1262     Mn  0.74714728  0.32953780  0.25099257     1.10090
Cl1263     Cl  0.74774738  0.25010245  0.25077212    -0.85750
C1264       C  0.84581682  0.34595740  0.16401340     0.96590
C1265       C  0.83805549  0.34563420  0.34744013     0.96380
C1266       C  0.86436017  0.37046493  0.37892864    -0.02270
C1267       C  0.86734971  0.13195272  0.37465855    -0.02270
C1268       C  0.62156777  0.37052589  0.36667489    -0.02270
C1269       C  0.62472182  0.13062528  0.37279472    -0.02270
C1270       C  0.96970818  0.00428704  0.31290166     0.00780
C1271       C  0.51275096  0.99901768  0.31323001     0.00780
C1272       C  0.87011611  0.36948670  0.13070799    -0.02270
C1273       C  0.62872318  0.36980646  0.12509170    -0.02270
C1274       C  0.99729409  0.30860595  0.47928458     0.00780
C1275       C  0.99297662  0.30973835  0.02215142     0.00780
C1276       C  0.62920227  0.12296666  0.13247987    -0.02270
C1277       C  0.98515718  0.99459564  0.18846909     0.00780
C1278       C  0.52744131  0.99779992  0.19740953     0.00780
C1279       C  0.68587522  0.47964107  0.99326960     0.00780
C1280       C  0.69030936  0.02193374  0.00046788     0.00780
C1281       C  0.97840957  0.19337297  0.00573601     0.00780
C1282       C  0.52090129  0.18745101  0.00170231     0.00780
C1283       C  0.87945268  0.13388278  0.13286587    -0.02270
C1284       C  0.81276890  0.48072027  0.00970270     0.00780
C1285       C  0.81297901  0.02299892  0.00310526     0.00780
C1286       C  0.81639798  0.08776979  0.10337800    -0.21090
C1287       C  0.85597423  0.10698607  0.09957327    -0.09130
C1288       C  0.87870267  0.09579742  0.06464223     0.29730
C1289       C  0.86260221  0.07165306  0.03348993    -0.21090
C1290       C  0.82375796  0.05311211  0.03664758    -0.09140
C1291       C  0.80114866  0.06010833  0.07289029     0.29730
F1292       F  0.76738199  0.03676765  0.08123624    -0.19670
H1293       H  0.79822352  0.09088296  0.13068693     0.18100
H1294       H  0.88290501  0.06333486  0.00867102     0.18100
F1295       F  0.91851928  0.10640825  0.06158812    -0.19660
C1296       C  0.94147928  0.18528547  0.11920786    -0.21090
C1297       C  0.90125598  0.17089687  0.10987096    -0.09130
C1298       C  0.88374777  0.18804798  0.07422151     0.29730
C1299       C  0.90973365  0.20236034  0.04288029    -0.21090
C1300       C  0.95344450  0.19859909  0.04589373    -0.09140
C1301       C  0.96855668  0.19631371  0.08681531     0.29730
F1302       F  0.00848778  0.20428623  0.09670277    -0.19670
H1303       H  0.95436415  0.18019567  0.14946331     0.18100
H1304       H  0.89505915  0.21141111  0.01448476     0.18100
F1305       F  0.84240549  0.18521530  0.06701682    -0.19660
C1306       C  0.97219165  0.05727448  0.14619401    -0.21090
C1307       C  0.95839189  0.03069752  0.17653093    -0.09130
C1308       C  0.91624548  0.03408253  0.18679971     0.29730
C1309       C  0.89355279  0.06957702  0.17661588    -0.21090
C1310       C  0.91050398  0.10153686  0.15206548    -0.09140
C1311       C  0.95126373  0.09308808  0.13661765     0.29730
F1312       F  0.97232309  0.11641353  0.10973762    -0.19670
H1313       H  0.00133773  0.05145620  0.13108976     0.18100
H1314       H  0.86122578  0.07025289  0.18500782     0.18100
F1315       F  0.89514845  0.00100198  0.20120338    -0.19660
C1316       C  0.56741593  0.11810205  0.08373260    -0.21090
C1317       C  0.59947274  0.14291311  0.10098797    -0.09130
C1318       C  0.60724812  0.18144420  0.08216030     0.29730
C1319       C  0.58319123  0.19421451  0.04888133    -0.21090
C1320       C  0.54780865  0.17214831  0.03597901    -0.09140
C1321       C  0.54151009  0.13268205  0.05262691     0.29730
F1322       F  0.51177911  0.10710507  0.03739702    -0.19670
H1323       H  0.56254133  0.08679569  0.09429584     0.18100
H1324       H  0.59396139  0.22048138  0.03218455     0.18100
F1325       F  0.63970457  0.20591719  0.09335072    -0.19660
C1326       C  0.65006142  0.05161274  0.10334103    -0.21090
C1327       C  0.65624205  0.09454743  0.10487848    -0.09130
C1328       C  0.68551110  0.11093455  0.07664301     0.29730
C1329       C  0.70276716  0.08576910  0.04602021    -0.21090
C1330       C  0.69252282  0.04314120  0.04310273    -0.09140
C1331       C  0.67371589  0.02675390  0.07814590     0.29730
F1332       F  0.69401214  0.99777772  0.09944375    -0.19670
H1333       H  0.62936210  0.03579292  0.12358014     0.18100
H1334       H  0.72060536  0.10058050  0.02208003     0.18100
F1335       F  0.69511926  0.15168526  0.07623826    -0.19660
C1336       C  0.53880306  0.07816302  0.19788731    -0.21090
C1337       C  0.55386740  0.03796613  0.20317265    -0.09130
C1338       C  0.59795906  0.03633830  0.20577582     0.29730
C1339       C  0.62270285  0.06816465  0.18960905    -0.21090
C1340       C  0.60424436  0.09944187  0.16648251    -0.09140
C1341       C  0.56292474  0.10812986  0.17733841     0.29730
F1342       F  0.54556049  0.14458755  0.16741309    -0.19670
H1343       H  0.50787269  0.08593549  0.20703512     0.18100
H1344       H  0.65583072  0.06395205  0.18837116     0.18100
F1345       F  0.61777199  0.00175493  0.21734745    -0.19660
C1346       C  0.56596580  0.29962529  0.05216382    -0.21090
C1347       C  0.52847714  0.32042930  0.05077838    -0.09130
C1348       C  0.52284781  0.35224533  0.07907516     0.29730
C1349       C  0.55086877  0.36003638  0.11016767    -0.21090
C1350       C  0.59103431  0.34338596  0.10906570    -0.09140
C1351       C  0.59729455  0.31088080  0.08060952     0.29730
F1352       F  0.63531775  0.29435984  0.07643538    -0.19670
H1353       H  0.57210607  0.27836200  0.02798850     0.18100
H1354       H  0.54222635  0.38482906  0.13002666     0.18100
F1355       F  0.49104238  0.37827704  0.07479628    -0.19660
C1356       C  0.70228087  0.43442041  0.05443257    -0.21090
C1357       C  0.67411882  0.44914018  0.02587318    -0.09130
C1358       C  0.63456148  0.43143844  0.02546866     0.29730
C1359       C  0.62417719  0.39968501  0.05222310    -0.21090
C1360       C  0.65044766  0.38752716  0.08527861    -0.09140
C1361       C  0.69092096  0.40523315  0.08469808     0.29730
F1362       F  0.71855392  0.39813936  0.11488197    -0.19670
H1363       H  0.73070913  0.45134971  0.05707819     0.18100
H1364       H  0.59221894  0.39082916  0.05074791     0.18100
F1365       F  0.60408724  0.44734652  0.00184820    -0.19660
C1366       C  0.59127458  0.39864173  0.18856163    -0.21090
C1367       C  0.61191076  0.40657133  0.15101781    -0.09130
C1368       C  0.60454571  0.44553722  0.13303873     0.29730
C1369       C  0.57330867  0.47041769  0.14604345    -0.21090
C1370       C  0.55308888  0.46283218  0.18259519    -0.09140
C1371       C  0.56231622  0.42651413  0.20423938     0.29730
F1372       F  0.54179829  0.41614058  0.23853451    -0.19670
H1373       H  0.59464164  0.36929935  0.20382818     0.18100
H1374       H  0.56712050  0.49831286  0.12892840     0.18100
F1375       F  0.62686390  0.46129328  0.10253563    -0.19660
C1376       C  0.92046779  0.33550394  0.03180232    -0.21090
C1377       C  0.95202087  0.31018137  0.04503228    -0.09130
C1378       C  0.94928141  0.29615994  0.08624859     0.29730
C1379       C  0.91884343  0.31092021  0.11267584    -0.21090
C1380       C  0.88815432  0.33821372  0.09891642    -0.09140
C1381       C  0.88622610  0.34348676  0.05593004     0.29730
F1382       F  0.85290667  0.35715773  0.03609077    -0.19670
H1383       H  0.92418786  0.35292423  0.00427503     0.18100
H1384       H  0.92342503  0.30551191  0.14505355     0.18100
F1385       F  0.98131124  0.27672573  0.10413668    -0.19660
C1386       C  0.84791960  0.44519482  0.11712054    -0.21090
C1387       C  0.84036966  0.40252701  0.11230756    -0.09130
C1388       C  0.80694741  0.39207864  0.08686254     0.29730
C1389       C  0.79627936  0.41929537  0.05524510    -0.21090
C1390       C  0.81430178  0.45944897  0.05177154    -0.09140
C1391       C  0.84057055  0.47176623  0.08453976     0.29730
F1392       F  0.86684326  0.50430289  0.08232946    -0.19670
H1393       H  0.86718941  0.45690310  0.14173921     0.18100
H1394       H  0.77682305  0.40715102  0.03086119     0.18100
F1395       F  0.79133680  0.35298722  0.08634915    -0.19660
C1396       C  0.92222102  0.39421698  0.18830321    -0.21090
C1397       C  0.90937080  0.39320899  0.14690694    -0.09130
C1398       C  0.93205715  0.41844637  0.11894691     0.29730
C1399       C  0.95908413  0.44908876  0.13280492    -0.21090
C1400       C  0.96681021  0.45411459  0.17453629    -0.09140
C1401       C  0.95217298  0.42344135  0.20154441     0.29730
F1402       F  0.96548394  0.42263955  0.24085509    -0.19670
H1403       H  0.90835834  0.37375150  0.21068380     0.18100
H1404       H  0.97174280  0.47097861  0.11094383     0.18100
F1405       F  0.92286630  0.41860342  0.07840107    -0.19660
C1406       C  0.59220967  0.05796690  0.37467508    -0.21090
C1407       C  0.60291189  0.09310323  0.35068776    -0.09130
C1408       C  0.58052911  0.09774610  0.31328322     0.29730
C1409       C  0.55009493  0.06843359  0.30120561    -0.21090
C1410       C  0.54077617  0.03423713  0.32575253    -0.09140
C1411       C  0.56031030  0.03125098  0.36374298     0.29730
F1412       F  0.54437534  0.00562399  0.39259380    -0.19670
H1413       H  0.60368529  0.05368845  0.40527526     0.18100
H1414       H  0.53188493  0.07356521  0.27427698     0.18100
F1415       F  0.58545335  0.13191406  0.28986349    -0.19660
C1416       C  0.64867763  0.07939642  0.47551061    -0.21090
C1417       C  0.67974637  0.05175804  0.46653956    -0.09130
C1418       C  0.69821906  0.05455174  0.42749917     0.29730
C1419       C  0.68398034  0.08357429  0.39846201    -0.21090
C1420       C  0.65248361  0.11219285  0.40814982    -0.09140
C1421       C  0.63889280  0.11120597  0.44970221     0.29730
F1422       F  0.61325487  0.13808686  0.46685170    -0.19670
H1423       H  0.63216847  0.07748791  0.50436263     0.18100
H1424       H  0.69525372  0.08091344  0.36747961     0.18100
F1425       F  0.72788943  0.02796317  0.41626666    -0.19660
C1426       C  0.57394715  0.20738033  0.44677234    -0.21090
C1427       C  0.54037265  0.18236572  0.46009205    -0.09130
C1428       C  0.53072655  0.14744015  0.43676517     0.29730
C1429       C  0.55112166  0.13944569  0.40056181    -0.21090
C1430       C  0.58996669  0.15790455  0.39201543    -0.09140
C1431       C  0.59905026  0.19518934  0.41338617     0.29730
F1432       F  0.63546214  0.21553971  0.40730378    -0.19670
H1433       H  0.58353488  0.23386391  0.46468196     0.18100
H1434       H  0.53932400  0.11326846  0.38406050     0.18100
F1435       F  0.50640329  0.11685004  0.45176035    -0.19660
C1436       C  0.57562951  0.30825178  0.39189663    -0.21090
C1437       C  0.59944328  0.34384079  0.40112875    -0.09130
C1438       C  0.59862507  0.35567087  0.44318858     0.29730
C1439       C  0.56687611  0.34316025  0.46900141    -0.21090
C1440       C  0.53918784  0.31168119  0.45811779    -0.09140
C1441       C  0.54601436  0.29256105  0.41955215     0.29730
F1442       F  0.52020094  0.26251979  0.40561992    -0.19670
H1443       H  0.57601265  0.29482432  0.36165175     0.18100
H1444       H  0.56239989  0.36128334  0.49610512     0.18100
F1445       F  0.62776414  0.37955916  0.46088089    -0.19660
C1446       C  0.52062481  0.41921691  0.32450069    -0.21090
C1447       C  0.53680757  0.45809754  0.31283193    -0.09130
C1448       C  0.58003088  0.45883599  0.30398089     0.29730
C1449       C  0.60555032  0.42568911  0.31341742    -0.21090
C1450       C  0.59045879  0.39189830  0.33617633    -0.09140
C1451       C  0.54678395  0.38655741  0.33556049     0.29730
F1452       F  0.52869205  0.34946383  0.34213638    -0.19670
H1453       H  0.48809847  0.41295169  0.32539493     0.18100
H1454       H  0.63856516  0.42990642  0.30922892     0.18100
F1455       F  0.59918807  0.49312541  0.28959556    -0.19660
C1456       C  0.68591775  0.39972900  0.40684488    -0.21090
C1457       C  0.64663714  0.40626308  0.38887475    -0.09130
C1458       C  0.62534487  0.44165060  0.40262715     0.29730
C1459       C  0.64303930  0.47006419  0.42987297    -0.21090
C1460       C  0.67940458  0.46103267  0.45104818    -0.09140
C1461       C  0.70038470  0.42489586  0.43942115     0.29730
F1462       F  0.73021684  0.40971136  0.46417331    -0.19670
H1463       H  0.70186619  0.37127622  0.40111512     0.18100
H1464       H  0.62376704  0.49462818  0.44080223     0.18100
F1465       F  0.58410666  0.44398929  0.39719946    -0.19660
C1466       C  0.79502800  0.07868236  0.45210278    -0.21090
C1467       C  0.81676306  0.04235592  0.46067899    -0.09130
C1468       C  0.84847629  0.03168310  0.43324346     0.29730
C1469       C  0.85749048  0.05601686  0.39896217    -0.21090
C1470       C  0.84051126  0.09589402  0.39409739    -0.09140
C1471       C  0.80668886  0.10523724  0.41981883     0.29730
F1472       F  0.78874481  0.14266408  0.41770795    -0.19670
H1473       H  0.77141482  0.08866294  0.47306191     0.18100
H1474       H  0.88368911  0.04621281  0.38142683     0.18100
F1475       F  0.87597587  0.00209875  0.44283577    -0.19660
C1476       C  0.88865170  0.08920238  0.31268793    -0.21090
C1477       C  0.90111021  0.11279031  0.34687993    -0.09130
C1478       C  0.94211193  0.10697145  0.36070251     0.29730
C1479       C  0.96341871  0.07198049  0.35018537    -0.21090
C1480       C  0.95012560  0.04605854  0.31840420    -0.09140
C1481       C  0.91279277  0.05674599  0.29858803     0.29730
F1482       F  0.89602636  0.03303265  0.26924646    -0.19670
H1483       H  0.85795556  0.09232725  0.29988525     0.18100
H1484       H  0.98847048  0.06405125  0.37014520     0.18210
F1485       F  0.96138335  0.13243791  0.38714159    -0.19660
C1486       C  0.89745160  0.13404587  0.44700599    -0.21090
C1487       C  0.88894802  0.15651825  0.41087678    -0.09130
C1488       C  0.91284085  0.19383797  0.40613043     0.29730
C1489       C  0.94265592  0.20586455  0.43591252    -0.21090
C1490       C  0.95086241  0.18133251  0.47002106    -0.09140
C1491       C  0.92963243  0.14409251  0.47291726     0.29730
F1492       F  0.94449857  0.11413146  0.49688152    -0.19670
H1493       H  0.88396811  0.10465979  0.45343681     0.18100
H1494       H  0.96124537  0.23280509  0.43098157     0.18100
F1495       F  0.91272993  0.21597900  0.37109512    -0.19660
C1496       C  0.85533200  0.39004693  0.45373263    -0.21090
C1497       C  0.83855866  0.39034065  0.41402140    -0.09130
C1498       C  0.80860314  0.42127804  0.40639940     0.29730
C1499       C  0.79827703  0.45015438  0.43717184    -0.21090
C1500       C  0.81949009  0.45089241  0.47494412    -0.09140
C1501       C  0.85055140  0.42233956  0.48052170     0.29730
F1502       F  0.87923437  0.42767381  0.51065483    -0.19670
H1503       H  0.88002693  0.37075293  0.46170324     0.18100
H1504       H  0.77520545  0.47285649  0.43077611     0.18100
F1505       F  0.79226739  0.42664057  0.36852471    -0.19660
C1506       C  0.93943514  0.34648739  0.38542313    -0.21090
C1507       C  0.89782875  0.33967139  0.39510429    -0.09130
C1508       C  0.88984786  0.30825423  0.42443579     0.29730
C1509       C  0.92206623  0.29578217  0.45112380    -0.21090
C1510       C  0.96174413  0.31501616  0.44911717    -0.09140
C1511       C  0.96866359  0.34195363  0.41580034     0.29730
F1512       F  0.00180973  0.36801909  0.41450254    -0.19670
H1513       H  0.94839929  0.36405023  0.35878031     0.18100
H1514       H  0.91508263  0.27394659  0.47522899     0.18100
F1515       F  0.85052358  0.29516991  0.43181548    -0.19660
C1516       C  0.88509604  0.41949749  0.31888786    -0.21090
C1517       C  0.88766709  0.40870103  0.36047396    -0.09130
C1518       C  0.91568364  0.43254328  0.38549266     0.29730
C1519       C  0.94131308  0.46268303  0.36891933    -0.21090
C1520       C  0.94093314  0.47088365  0.32712401    -0.09140
C1521       C  0.91069648  0.45061522  0.30269469     0.29730
F1522       F  0.90539047  0.46008089  0.26305538    -0.19670
H1523       H  0.86404795  0.40357925  0.29826766     0.18100
H1524       H  0.96297759  0.47886496  0.38890223     0.18100
F1525       F  0.92307697  0.42364622  0.42531843    -0.19660
N1526       N  0.67147076  0.19885822  0.70125935    -0.05900
N1527       N  0.64258247  0.18811205  0.67424645    -0.58020
N1528       N  0.69629036  0.17104946  0.79639903    -0.05580
N1529       N  0.68659197  0.14262251  0.82408587    -0.60150
N1530       N  0.66802201  0.19989114  0.79598983    -0.05180
N1531       N  0.63912125  0.19154748  0.82369388    -0.58000
N1532       N  0.70101948  0.17129250  0.70171266    -0.04860
N1533       N  0.69271724  0.14186011  0.67470349    -0.60500
C1534       C  0.65672598  0.15315775  0.65669216     0.96270
C1535       C  0.65109771  0.15579356  0.84160731     0.96050
N1536       N  0.82410919  0.20233958  0.80158925    -0.06090
N1537       N  0.85257741  0.19410144  0.82932056    -0.58600
N1538       N  0.80216231  0.17094554  0.70641044    -0.04210
N1539       N  0.81443823  0.14163650  0.68075863    -0.59850
N1540       N  0.83019320  0.20086183  0.70780192    -0.06120
N1541       N  0.86151537  0.19220358  0.68327620    -0.58870
N1542       N  0.79554843  0.17304297  0.80110382    -0.03850
N1543       N  0.80413902  0.14479545  0.82905460    -0.59940
Mn1544     Mn  0.74860587  0.17076639  0.75117314     1.18440
C1545       C  0.83966284  0.15869131  0.84727758     0.98360
C1546       C  0.85166636  0.15512876  0.66594665     0.99020
N1547       N  0.66719195  0.29939411  0.79495002    -0.06140
N1548       N  0.63735993  0.30817714  0.82108722    -0.62450
N1549       N  0.69889102  0.32814628  0.70138707    -0.04940
N1550       N  0.69019256  0.35715314  0.67421951    -0.63120
N1551       N  0.67086611  0.29828712  0.69941729    -0.05640
N1552       N  0.64337047  0.30640951  0.67025931    -0.62710
N1553       N  0.69603103  0.32844740  0.79621951    -0.04540
N1554       N  0.68624081  0.35713733  0.82329367    -0.63400
Mn1555     Mn  0.66855214  0.24907261  0.74786190     1.10660
C1556       C  0.64980580  0.34383775  0.83959455     0.99580
C1557       C  0.65599834  0.34309850  0.65387310     0.99660
N1558       N  0.82783275  0.30103817  0.70786222    -0.05650
N1559       N  0.85796575  0.31052900  0.68208439    -0.61020
N1560       N  0.79490027  0.32960003  0.80045364    -0.04970
N1561       N  0.80318784  0.35846764  0.82827229    -0.57750
N1562       N  0.82316417  0.30085456  0.80180389    -0.06280
N1563       N  0.85075285  0.30970246  0.83061887    -0.60590
N1564       N  0.79885562  0.32910735  0.70629317    -0.05270
N1565       N  0.80880979  0.35782732  0.67917455    -0.57780
Mn1566     Mn  0.82680361  0.25136225  0.75461786     1.20190
Mn1567     Mn  0.74714817  0.32953941  0.75099108     1.10090
Cl1568     Cl  0.74774887  0.25010391  0.75077173    -0.85750
C1569       C  0.84581770  0.34595746  0.66401236     0.96590
C1570       C  0.83805917  0.34563987  0.84743587     0.96380
C1571       C  0.86436280  0.37047127  0.87892478    -0.02270
C1572       C  0.86735212  0.13195498  0.87465999    -0.02270
C1573       C  0.62156807  0.37052528  0.86667430    -0.02270
C1574       C  0.62472523  0.13062979  0.87279692    -0.02270
C1575       C  0.96971333  0.00429280  0.81290262     0.00780
C1576       C  0.51275584  0.99902243  0.81323156     0.00780
C1577       C  0.87011695  0.36948658  0.63070702    -0.02270
C1578       C  0.62872063  0.36980569  0.62509165    -0.02270
C1579       C  0.99729503  0.30860995  0.97928401     0.00780
C1580       C  0.99297601  0.30973469  0.52215191     0.00780
C1581       C  0.62920290  0.12296497  0.63248108    -0.02270
C1582       C  0.98515692  0.99459577  0.68846836     0.00780
C1583       C  0.52744087  0.99780045  0.69740988     0.00780
C1584       C  0.68587646  0.47964057  0.49327055     0.00780
C1585       C  0.69031286  0.02193323  0.50046669     0.00780
C1586       C  0.97840923  0.19337040  0.50573429     0.00780
C1587       C  0.52090064  0.18744633  0.50170094     0.00780
C1588       C  0.87945326  0.13388371  0.63286501    -0.02270
C1589       C  0.81276928  0.48072051  0.50970353     0.00780
C1590       C  0.81297894  0.02299901  0.50310581     0.00780
C1591       C  0.81639772  0.08777315  0.60337611    -0.21090
C1592       C  0.85597496  0.10698720  0.59957229    -0.09130
C1593       C  0.87870383  0.09579730  0.56464178     0.29730
C1594       C  0.86260344  0.07165234  0.53348983    -0.21090
C1595       C  0.82375862  0.05311266  0.53664734    -0.09140
C1596       C  0.80114846  0.06011140  0.57288886     0.29730
F1597       F  0.76738123  0.03677214  0.58123477    -0.19670
H1598       H  0.79822225  0.09088812  0.63068412     0.18100
H1599       H  0.88290621  0.06333323  0.50867118     0.18100
F1600       F  0.91852050  0.10640799  0.56158763    -0.19660
C1601       C  0.94147955  0.18528560  0.61920635    -0.21090
C1602       C  0.90125612  0.17089759  0.60987000    -0.09130
C1603       C  0.88374777  0.18804824  0.57422042     0.29730
C1604       C  0.90973357  0.20235906  0.54287858    -0.21090
C1605       C  0.95344438  0.19859723  0.54589189    -0.09140
C1606       C  0.96855682  0.19631237  0.58681339     0.29730
F1607       F  0.00848791  0.20428453  0.59670068    -0.19670
H1608       H  0.95436454  0.18019620  0.64946183     0.18100
H1609       H  0.89505885  0.21140899  0.51448292     0.18100
F1610       F  0.84240537  0.18521600  0.56701616    -0.19660
C1611       C  0.97219191  0.05727459  0.64619286    -0.21090
C1612       C  0.95839161  0.03069754  0.67652950    -0.09130
C1613       C  0.91624493  0.03408261  0.68679732     0.29730
C1614       C  0.89355281  0.06957748  0.67661386    -0.21090
C1615       C  0.91050458  0.10153755  0.65206422    -0.09140
C1616       C  0.95126449  0.09308856  0.63661664     0.29730
F1617       F  0.97232450  0.11641390  0.60973685    -0.19670
H1618       H  0.00133823  0.05145623  0.63108901     0.18100
H1619       H  0.86122572  0.07025352  0.68500548     0.18100
F1620       F  0.89514722  0.00100253  0.70120107    -0.19660
C1621       C  0.56741940  0.11809648  0.58372954    -0.21090
C1622       C  0.59947272  0.14291001  0.60098813    -0.09130
C1623       C  0.60724255  0.18144449  0.58216497     0.29730
C1624       C  0.58318549  0.19421341  0.54888609    -0.21090
C1625       C  0.54780769  0.17214378  0.53597835    -0.09140
C1626       C  0.54151280  0.13267564  0.55262364     0.29730
F1627       F  0.51178468  0.10709677  0.53739122    -0.19670
H1628       H  0.56254799  0.08678879  0.59429096     0.18100
H1629       H  0.59395259  0.22048854  0.53219121     0.18100
F1630       F  0.63969414  0.20592190  0.59335952    -0.19660
C1631       C  0.65008047  0.05161014  0.60335184    -0.21090
C1632       C  0.65624526  0.09454730  0.60487976    -0.09130
C1633       C  0.68550501  0.11093859  0.57663721     0.29730
C1634       C  0.70276167  0.08577485  0.54601355    -0.21090
C1635       C  0.69252581  0.04314483  0.54310003    -0.09140
C1636       C  0.67373182  0.02675540  0.57814894     0.29730
F1637       F  0.69403130  0.99777312  0.59943500    -0.19670
H1638       H  0.62939390  0.03578557  0.62359956     0.18100
H1639       H  0.72059297  0.10058868  0.52206978     0.18100
F1640       F  0.69510372  0.15169127  0.57622732    -0.19660
C1641       C  0.53880139  0.07816346  0.69788765    -0.21090
C1642       C  0.55386595  0.03796704  0.70317491    -0.09130
C1643       C  0.59795751  0.03634033  0.70578078     0.29730
C1644       C  0.62270149  0.06816724  0.68961502    -0.21090
C1645       C  0.60424355  0.09944095  0.66648339    -0.09140
C1646       C  0.56292315  0.10812900  0.67733693     0.29730
F1647       F  0.54555878  0.14458595  0.66740916    -0.19670
H1648       H  0.50787089  0.08593612  0.70703491     0.18100
H1649       H  0.65582979  0.06395643  0.68838100     0.18100
F1650       F  0.61777054  0.00175718  0.71735277    -0.19660
C1651       C  0.56596789  0.29962773  0.55216013    -0.21090
C1652       C  0.52847656  0.32042649  0.55077873    -0.09130
C1653       C  0.52284550  0.35223993  0.57907840     0.29730
C1654       C  0.55086696  0.36003118  0.61017018    -0.21090
C1655       C  0.59103359  0.34338409  0.60906530    -0.09140
C1656       C  0.59729621  0.31088256  0.58060560     0.29730
F1657       F  0.63532102  0.29436597  0.57642844    -0.19670
H1658       H  0.57211230  0.27836608  0.52797835     0.18100
H1659       H  0.54222399  0.38482328  0.63002996     0.18100
F1660       F  0.49103847  0.37827007  0.57480227    -0.19660
C1661       C  0.70227825  0.43441093  0.55442575    -0.21090
C1662       C  0.67411470  0.44914298  0.52587481    -0.09130
C1663       C  0.63455227  0.43145314  0.52547586     0.29730
C1664       C  0.62416406  0.39969959  0.55222937    -0.21090
C1665       C  0.65043958  0.38752870  0.58527672    -0.09140
C1666       C  0.69091767  0.40522201  0.58468895     0.29730
F1667       F  0.71855662  0.39811272  0.61486343    -0.19670
H1668       H  0.73071014  0.45133321  0.55706735     0.18100
H1669       H  0.59220336  0.39085056  0.55075905     0.18100
F1670       F  0.60408039  0.44737002  0.50185833    -0.19660
C1671       C  0.59126901  0.39863808  0.68856222    -0.21090
C1672       C  0.61190836  0.40656863  0.65102051    -0.09130
C1673       C  0.60455322  0.44553834  0.63304703     0.29730
C1674       C  0.57331558  0.47041993  0.64604818    -0.21090
C1675       C  0.55308983  0.46283286  0.68259672    -0.09140
C1676       C  0.56231310  0.42651299  0.70424018     0.29730
F1677       F  0.54179550  0.41614147  0.73853605    -0.19670
H1678       H  0.59463228  0.36929412  0.70382670     0.18100
H1679       H  0.56713429  0.49831817  0.62893544     0.18100
F1680       F  0.62688560  0.46129778  0.60255584    -0.19660
C1681       C  0.92047049  0.33550410  0.53180228    -0.21090
C1682       C  0.95202041  0.31017803  0.54503199    -0.09130
C1683       C  0.94927965  0.29615646  0.58624809     0.29730
C1684       C  0.91884225  0.31091847  0.61267494    -0.21090
C1685       C  0.88815499  0.33821391  0.59891522    -0.09140
C1686       C  0.88622903  0.34348889  0.55592894     0.29730
F1687       F  0.85291344  0.35716640  0.53608865    -0.19670
H1688       H  0.92419342  0.35292515  0.50427567     0.18100
H1689       H  0.92342346  0.30550995  0.64505263     0.18100
F1690       F  0.98130899  0.27672216  0.60413688    -0.19660
C1691       C  0.84791774  0.44519404  0.61712220    -0.21090
C1692       C  0.84036992  0.40252618  0.61230737    -0.09130
C1693       C  0.80694937  0.39207681  0.58686106     0.29730
C1694       C  0.79628291  0.41929315  0.55524315    -0.21090
C1695       C  0.81430235  0.45944827  0.55177195    -0.09140
C1696       C  0.84056800  0.47176648  0.58454239     0.29730
F1697       F  0.86683784  0.50430558  0.58233570    -0.19670
H1698       H  0.86718655  0.45690197  0.64174181     0.18100
H1699       H  0.77682975  0.40714741  0.53085742     0.18100
F1700       F  0.79134185  0.35298419  0.58634500    -0.19660
C1701       C  0.92222208  0.39421645  0.68830151    -0.21090
C1702       C  0.90937132  0.39320926  0.64690552    -0.09130
C1703       C  0.93205650  0.41844792  0.61894573     0.29730
C1704       C  0.95908380  0.44908986  0.63280390    -0.21090
C1705       C  0.96681064  0.45411474  0.67453523    -0.09140
C1706       C  0.95217367  0.42344088  0.70154298     0.29730
F1707       F  0.96548418  0.42263833  0.74085373    -0.19670
H1708       H  0.90835999  0.37375031  0.71068186     0.18100
H1709       H  0.97174201  0.47098022  0.61094305     0.18100
F1710       F  0.92286513  0.41860582  0.57840004    -0.19660
C1711       C  0.59221835  0.05796924  0.87467435    -0.21090
C1712       C  0.60291721  0.09310762  0.85068868    -0.09130
C1713       C  0.58053253  0.09775167  0.81328540     0.29730
C1714       C  0.55009878  0.06843893  0.80120766    -0.21090
C1715       C  0.54078174  0.03424144  0.82575381    -0.09140
C1716       C  0.56031852  0.03125361  0.86374289     0.29730
F1717       F  0.54438626  0.00562462  0.89259320    -0.19670
H1718       H  0.60369561  0.05369011  0.90527401     0.18100
H1719       H  0.53188792  0.07357129  0.77427959     0.18100
F1720       F  0.58545457  0.13192090  0.78986711    -0.19660
C1721       C  0.64868249  0.07940639  0.97551439    -0.21090
C1722       C  0.67974546  0.05176142  0.96654183    -0.09130
C1723       C  0.69821748  0.05455267  0.92750083     0.29730
C1724       C  0.68398169  0.08357654  0.89846365    -0.21090
C1725       C  0.65248817  0.11219842  0.90815166    -0.09140
C1726       C  0.63890152  0.11121706  0.94970520     0.29730
F1727       F  0.61327570  0.13810879  0.96685641    -0.19670
H1728       H  0.63217532  0.07750255  0.00436768     0.18100
H1729       H  0.69525355  0.08091372  0.86748081     0.18100
F1730       F  0.72788514  0.02796130  0.91626798    -0.19660
C1731       C  0.57394296  0.20738594  0.94676958    -0.21090
C1732       C  0.54037281  0.18236815  0.96009376    -0.09130
C1733       C  0.53073102  0.14743816  0.93677238     0.29730
C1734       C  0.55112627  0.13944141  0.90056986    -0.21090
C1735       C  0.58996744  0.15790608  0.89201768    -0.09140
C1736       C  0.59904608  0.19519497  0.91338330     0.29730
F1737       F  0.63545428  0.21555060  0.90729658    -0.19670
H1738       H  0.58352818  0.23387188  0.96467628     0.18100
H1739       H  0.53933088  0.11326087  0.88407257     0.18100
F1740       F  0.50640890  0.11684876  0.95177087    -0.19660
C1741       C  0.57562630  0.30825228  0.89189165    -0.21090
C1742       C  0.59944507  0.34383703  0.90112625    -0.09130
C1743       C  0.59863462  0.35565961  0.94318791     0.29730
C1744       C  0.56688397  0.34315313  0.96900093    -0.21090
C1745       C  0.53918862  0.31168079  0.95811540    -0.09140
C1746       C  0.54601008  0.29256351  0.91954710     0.29730
F1747       F  0.52019241  0.26252673  0.90561325    -0.19670
H1748       H  0.57600633  0.29482806  0.86164515     0.18100
H1749       H  0.56241212  0.36127483  0.99610562     0.18100
F1750       F  0.62778493  0.37953392  0.96088121    -0.19660
C1751       C  0.52062654  0.41922208  0.82450189    -0.21090
C1752       C  0.53681114  0.45810175  0.81283334    -0.09130
C1753       C  0.58003453  0.45883848  0.80398314     0.29730
C1754       C  0.60555212  0.42569011  0.81341886    -0.21090
C1755       C  0.59045905  0.39189931  0.83617680    -0.09140
C1756       C  0.54678371  0.38656121  0.83556185     0.29730
F1757       F  0.52868854  0.34946979  0.84214032    -0.19670
H1758       H  0.48810002  0.41295898  0.82539616     0.18100
H1759       H  0.63856714  0.42990608  0.80923060     0.18100
F1760       F  0.59919399  0.49312784  0.78960059    -0.19660
C1761       C  0.68591924  0.39973453  0.90683991    -0.21090
C1762       C  0.64663480  0.40626307  0.88887603    -0.09130
C1763       C  0.62533857  0.44164610  0.90263342     0.29730
C1764       C  0.64303406  0.47006336  0.92987503    -0.21090
C1765       C  0.67940260  0.46103540  0.95104640    -0.09140
C1766       C  0.70038578  0.42490146  0.93941625     0.29730
F1767       F  0.73021986  0.40971816  0.96416677    -0.19670
H1768       H  0.70187121  0.37128444  0.90110705     0.18100
H1769       H  0.62376073  0.49462562  0.94080660     0.18100
F1770       F  0.58409875  0.44397772  0.89721203    -0.19660
C1771       C  0.79502855  0.07868197  0.95210127    -0.21090
C1772       C  0.81676434  0.04235624  0.96067855    -0.09130
C1773       C  0.84847909  0.03168436  0.93324438     0.29730
C1774       C  0.85749449  0.05601869  0.89896358    -0.21090
C1775       C  0.84051405  0.09589526  0.89409783    -0.09140
C1776       C  0.80669007  0.10523724  0.91981779     0.29730
F1777       F  0.78874490  0.14266350  0.91770622    -0.19670
H1778       H  0.77141410  0.08866182  0.97305927     0.18100
H1779       H  0.88369384  0.04621533  0.88142884     0.18100
F1780       F  0.87597779  0.00209945  0.94283747    -0.19660
C1781       C  0.88865848  0.08920814  0.81268865    -0.21090
C1782       C  0.90111474  0.11279370  0.84688304    -0.09130
C1783       C  0.94211558  0.10697323  0.86070850     0.29730
C1784       C  0.96342349  0.07198364  0.85018918    -0.21090
C1785       C  0.95013212  0.04606448  0.81840533    -0.09140
C1786       C  0.91280082  0.05675332  0.79858753     0.29730
F1787       F  0.89603735  0.03304236  0.76924244    -0.19670
H1788       H  0.85796329  0.09233399  0.79988400     0.18100
H1789       H  0.98847461  0.06405234  0.87014921     0.18210
F1790       F  0.96138489  0.13243590  0.88715266    -0.19660
C1791       C  0.89745004  0.13404993  0.94700885    -0.21090
C1792       C  0.88894841  0.15652132  0.91087860    -0.09130
C1793       C  0.91284229  0.19384027  0.90613183     0.29730
C1794       C  0.94265706  0.20586662  0.93591423    -0.21090
C1795       C  0.95086319  0.18133453  0.97002268    -0.09140
C1796       C  0.92963225  0.14409507  0.97291905     0.29730
F1797       F  0.94449777  0.11413335  0.99688266    -0.19670
H1798       H  0.88396458  0.10466494  0.95344068     0.18100
H1799       H  0.96124649  0.23280713  0.93098403     0.18100
F1800       F  0.91273209  0.21598089  0.87109626    -0.19660
C1801       C  0.85532611  0.39004351  0.95373104    -0.21090
C1802       C  0.83855880  0.39034381  0.91401741    -0.09130
C1803       C  0.80860613  0.42128366  0.90639505     0.29730
C1804       C  0.79827952  0.45015847  0.93716857    -0.21090
C1805       C  0.81948867  0.45089176  0.97494318    -0.09140
C1806       C  0.85054566  0.42233434  0.98052231     0.29730
F1807       F  0.87922691  0.42766369  0.01065780    -0.19670
H1808       H  0.88001762  0.37074622  0.96170343     0.18100
H1809       H  0.77521073  0.47286307  0.93077194     0.18100
F1810       F  0.79227535  0.42665069  0.86851883    -0.19660
C1811       C  0.93944088  0.34650313  0.88542607    -0.21090
C1812       C  0.89783385  0.33968020  0.89510060    -0.09130
C1813       C  0.88985327  0.30825800  0.92442686     0.29730
C1814       C  0.92206957  0.29578724  0.95111802    -0.21090
C1815       C  0.96174602  0.31502469  0.94911733    -0.09140
C1816       C  0.96866664  0.34196788  0.91580556     0.29730
F1817       F  0.00181356  0.36803295  0.91451292    -0.19670
H1818       H  0.94840652  0.36406909  0.85878608     0.18100
H1819       H  0.91508521  0.27394913  0.97522079     0.18100
F1820       F  0.85052967  0.29516733  0.93179946    -0.19660
C1821       C  0.88509993  0.41950448  0.81888474    -0.21090
C1822       C  0.88766722  0.40870950  0.86047141    -0.09130
C1823       C  0.91567929  0.43255443  0.88549243     0.29730
C1824       C  0.94131174  0.46269245  0.86892011    -0.21090
C1825       C  0.94093645  0.47089080  0.82712424    -0.09140
C1826       C  0.91070138  0.45062236  0.80269320     0.29730
F1827       F  0.90539790  0.46008877  0.76305389    -0.19670
H1828       H  0.86405422  0.40358487  0.79826314     0.18100
H1829       H  0.96297422  0.47887532  0.88890446     0.18100
F1830       F  0.92306590  0.42366044  0.92532015    -0.19660
N1831       N  0.67147027  0.69885887  0.20125967    -0.05900
N1832       N  0.64258333  0.68811424  0.17424476    -0.58020
N1833       N  0.69628549  0.67104552  0.29639905    -0.05580
N1834       N  0.68658427  0.64261589  0.32408245    -0.60150
N1835       N  0.66801744  0.69988751  0.29599028    -0.05180
N1836       N  0.63911420  0.69154133  0.32369127    -0.58000
N1837       N  0.70101854  0.67129269  0.20171342    -0.04860
N1838       N  0.69271707  0.64186108  0.17470328    -0.60500
C1839       C  0.65672697  0.65315990  0.15669057     0.96270
C1840       C  0.65108853  0.65578539  0.34160236     0.96050
N1841       N  0.82410578  0.70233871  0.30159197    -0.06090
N1842       N  0.85257366  0.69410001  0.32932336    -0.58600
N1843       N  0.80216114  0.67094539  0.20641333    -0.04210
N1844       N  0.81443820  0.64163633  0.18076216    -0.59850
N1845       N  0.83019179  0.70086185  0.20780522    -0.06120
N1846       N  0.86151480  0.69220381  0.18328055    -0.58870
N1847       N  0.79554492  0.67304207  0.30110589    -0.03850
N1848       N  0.80413538  0.64479388  0.32905592    -0.59940
Mn1849     Mn  0.74860337  0.67076526  0.25117476     1.18440
C1850       C  0.83965901  0.65868941  0.34727930     0.98360
C1851       C  0.85166656  0.65512897  0.16595102     0.99020
N1852       N  0.66719124  0.79939275  0.29495326    -0.06140
N1853       N  0.63735880  0.80817672  0.32108968    -0.62450
N1854       N  0.69889123  0.82814522  0.20139084    -0.04940
N1855       N  0.69019394  0.85715196  0.17422296    -0.63120
N1856       N  0.67086551  0.79828688  0.19942123    -0.05640
N1857       N  0.64337000  0.80640996  0.17026343    -0.62710
N1858       N  0.69603071  0.82844582  0.29622286    -0.04540
N1859       N  0.68624022  0.85713635  0.32329629    -0.63400
Mn1860     Mn  0.66855058  0.74907155  0.24786422     1.10660
C1861       C  0.64980472  0.84383756  0.33959664     0.99580
C1862       C  0.65599901  0.84309851  0.15387727     0.99660
N1863       N  0.82783182  0.80103761  0.20786435    -0.05650
N1864       N  0.85796390  0.81052770  0.18208518    -0.61020
N1865       N  0.79490106  0.82959935  0.30045586    -0.04970
N1866       N  0.80319087  0.85846851  0.32827214    -0.57750
N1867       N  0.82316482  0.80085380  0.30180602    -0.06280
N1868       N  0.85075575  0.80970312  0.33061856    -0.60590
N1869       N  0.79885476  0.82910683  0.20629545    -0.05270
N1870       N  0.80880797  0.85782615  0.17917565    -0.57780
Mn1871     Mn  0.82680218  0.75136158  0.25462058     1.20190
Mn1872     Mn  0.74714802  0.82953828  0.25099423     1.10090
Cl1873     Cl  0.74774736  0.75010285  0.25077487    -0.85750
C1874       C  0.84581529  0.84595578  0.16401252     0.96590
C1875       C  0.83806347  0.84564164  0.34743401     0.96380
C1876       C  0.86436724  0.87047410  0.37892158    -0.02270
C1877       C  0.86734866  0.63195202  0.37465965    -0.02270
C1878       C  0.62156708  0.87052543  0.36667640    -0.02270
C1879       C  0.62471570  0.63062216  0.37279320    -0.02270
C1880       C  0.96970135  0.50427828  0.31290593     0.00780
C1881       C  0.51274455  0.49901099  0.31323336     0.00780
C1882       C  0.87011412  0.86948380  0.13070600    -0.02270
C1883       C  0.62872360  0.86980580  0.12509420    -0.02270
C1884       C  0.99729726  0.80860953  0.47928624     0.00780
C1885       C  0.99297790  0.80974049  0.02215289     0.00780
C1886       C  0.62920360  0.62296759  0.13247971    -0.02270
C1887       C  0.98515978  0.49459794  0.18847553     0.00780
C1888       C  0.52744453  0.49780090  0.19741353     0.00780
C1889       C  0.68587183  0.97964006  0.99327061     0.00780
C1890       C  0.69031140  0.52193514  0.00046611     0.00780
C1891       C  0.97840777  0.69337542  0.00573734     0.00780
C1892       C  0.52089940  0.68745227  0.00170328     0.00780
C1893       C  0.87945516  0.63388357  0.13287136    -0.02270
C1894       C  0.81276808  0.98071754  0.00969899     0.00780
C1895       C  0.81298020  0.52300156  0.00310923     0.00780
C1896       C  0.81639939  0.58777369  0.10338061    -0.21090
C1897       C  0.85597856  0.60698443  0.09957941    -0.09130
C1898       C  0.87870893  0.59579230  0.06465057     0.29730
C1899       C  0.86260695  0.57165166  0.03349574    -0.21090
C1900       C  0.82376052  0.55311455  0.03665122    -0.09140
C1901       C  0.80114983  0.56011304  0.07289251     0.29730
F1902       F  0.76738103  0.53677504  0.08123700    -0.19670
H1903       H  0.79822227  0.59089002  0.13068730     0.18100
H1904       H  0.88290983  0.56333209  0.00867726     0.18100
F1905       F  0.91852802  0.60639588  0.06160117    -0.19660
C1906       C  0.94147915  0.68528924  0.11921014    -0.21090
C1907       C  0.90125694  0.67089697  0.10987386    -0.09130
C1908       C  0.88374742  0.68804567  0.07422388     0.29730
C1909       C  0.90973206  0.70236052  0.04288276    -0.21090
C1910       C  0.95344312  0.69860106  0.04589548    -0.09140
C1911       C  0.96855599  0.69631707  0.08681684     0.29730
F1912       F  0.00848723  0.70429071  0.09670321    -0.19670
H1913       H  0.95436425  0.68020226  0.14946600     0.18100
H1914       H  0.89505682  0.71141170  0.01448769     0.18100
F1915       F  0.84240519  0.68521062  0.06701966    -0.19660
C1916       C  0.97219473  0.55727828  0.14620351    -0.21090
C1917       C  0.95839506  0.53070082  0.17653984    -0.09130
C1918       C  0.91624896  0.53408604  0.18680957     0.29730
C1919       C  0.89355577  0.56958008  0.17662476    -0.21090
C1920       C  0.91050698  0.60154003  0.15207424    -0.09140
C1921       C  0.95126803  0.59309291  0.13662924     0.29730
F1922       F  0.97232929  0.61642006  0.10975216    -0.19670
H1923       H  0.00134038  0.55145984  0.13109853     0.18100
H1924       H  0.86122839  0.57025518  0.18501544     0.18100
F1925       F  0.89515233  0.50100476  0.20121211    -0.19660
C1926       C  0.56741265  0.61810477  0.08373678    -0.21090
C1927       C  0.59947231  0.64291429  0.10098920    -0.09130
C1928       C  0.60724990  0.68144343  0.08215814     0.29730
C1929       C  0.58319285  0.69421240  0.04887912    -0.21090
C1930       C  0.54780737  0.67214955  0.03598002    -0.09140
C1931       C  0.54150615  0.63268495  0.05263144     0.29730
F1932       F  0.51177190  0.60710967  0.03740491    -0.19670
H1933       H  0.56253631  0.58679912  0.09430193     0.18100
H1934       H  0.59396692  0.72048072  0.03217625     0.18100
F1935       F  0.63970823  0.70591488  0.09334629    -0.19660
C1936       C  0.65006070  0.55161448  0.10333783    -0.21090
C1937       C  0.65624283  0.59454894  0.10487708    -0.09130
C1938       C  0.68551258  0.61093606  0.07664230     0.29730
C1939       C  0.70276784  0.58577102  0.04601863    -0.21090
C1940       C  0.69252368  0.54314304  0.04310081    -0.09140
C1941       C  0.67371598  0.52675564  0.07814340     0.29730
F1942       F  0.69401265  0.49777995  0.09944161    -0.19670
H1943       H  0.62935972  0.53579493  0.12357551     0.18100
H1944       H  0.72060612  0.60058267  0.02207873     0.18100
F1945       F  0.69512295  0.65168626  0.07623948    -0.19660
C1946       C  0.53880885  0.57816416  0.19789291    -0.21090
C1947       C  0.55387222  0.53796647  0.20317589    -0.09130
C1948       C  0.59796397  0.53633739  0.20577595     0.29730
C1949       C  0.62270739  0.56816312  0.18960731    -0.21090
C1950       C  0.60424792  0.59944169  0.16648319    -0.09140
C1951       C  0.56292982  0.60813093  0.17734318     0.29730
F1952       F  0.54556619  0.64458968  0.16742066    -0.19670
H1953       H  0.50787927  0.58593739  0.20704265     0.18100
H1954       H  0.65583503  0.56394965  0.18836684     0.18100
F1955       F  0.61777670  0.50175359  0.21734689    -0.19660
C1956       C  0.56596360  0.79962228  0.05217129    -0.21090
C1957       C  0.52847757  0.82042970  0.05078120    -0.09130
C1958       C  0.52284880  0.85224728  0.07907623     0.29730
C1959       C  0.55086872  0.86003779  0.11016992    -0.21090
C1960       C  0.59103360  0.84338547  0.10906997    -0.09140
C1961       C  0.59729259  0.81087761  0.08061635     0.29730
F1962       F  0.63531483  0.79435412  0.07644443    -0.19670
H1963       H  0.57210336  0.77835212  0.02799566     0.18100
H1964       H  0.54222681  0.88483181  0.13002780     0.18100
F1965       F  0.49104521  0.87828047  0.07479395    -0.19660
C1966       C  0.70227985  0.93441976  0.05443368    -0.21090
C1967       C  0.67411734  0.94913694  0.02587321    -0.09130
C1968       C  0.63456167  0.93143074  0.02546735     0.29730
C1969       C  0.62417881  0.89967879  0.05222371    -0.21090
C1970       C  0.65044871  0.88752451  0.08528059    -0.09140
C1971       C  0.69092104  0.90523289  0.08470016     0.29730
F1972       F  0.71855347  0.89814257  0.11488544    -0.19670
H1973       H  0.73070738  0.95135055  0.05707929     0.18100
H1974       H  0.59222094  0.89082245  0.05074909     0.18100
F1975       F  0.60408615  0.94733408  0.00184551    -0.19660
C1976       C  0.59127631  0.89864359  0.18856333    -0.21090
C1977       C  0.61191201  0.90657188  0.15101898    -0.09130
C1978       C  0.60454565  0.94553664  0.13303784     0.29730
C1979       C  0.57330808  0.97041696  0.14604171    -0.21090
C1980       C  0.55308765  0.96283188  0.18259323    -0.09140
C1981       C  0.56231677  0.92651561  0.20423954     0.29730
F1982       F  0.54179989  0.91614352  0.23853572    -0.19670
H1983       H  0.59464455  0.86930221  0.20383151     0.18100
H1984       H  0.56711920  0.99831127  0.12892550     0.18100
F1985       F  0.62686173  0.96129103  0.10253231    -0.19660
C1986       C  0.92046371  0.83549875  0.03180120    -0.21090
C1987       C  0.95202117  0.81018189  0.04503297    -0.09130
C1988       C  0.94928231  0.79616088  0.08624958     0.29730
C1989       C  0.91884238  0.81091824  0.11267592    -0.21090
C1990       C  0.88815134  0.83820906  0.09891569    -0.09140
C1991       C  0.88622097  0.84347867  0.05592904     0.29730
F1992       F  0.85289706  0.85714035  0.03608962    -0.19670
H1993       H  0.92418048  0.85291850  0.00427346     0.18100
H1994       H  0.92342428  0.80551108  0.14505381     0.18100
F1995       F  0.98131316  0.77672936  0.10413891    -0.19660
C1996       C  0.84792062  0.94519280  0.11711596    -0.21090
C1997       C  0.84036880  0.90252490  0.11230461    -0.09130
C1998       C  0.80694580  0.89207721  0.08686037     0.29730
C1999       C  0.79627710  0.91929391  0.05524308    -0.21090
C2000       C  0.81430054  0.95944703  0.05176825    -0.09140
C2001       C  0.84057138  0.97176386  0.08453484     0.29730
F2002       F  0.86684499  0.00429988  0.08232217    -0.19670
H2003       H  0.86719137  0.95690119  0.14173376     0.18100
H2004       H  0.77681931  0.90714991  0.03086016     0.18100
F2005       F  0.79133224  0.85298687  0.08634974    -0.19660
C2006       C  0.92222042  0.89421398  0.18829994    -0.21090
C2007       C  0.90936952  0.89320541  0.14690395    -0.09130
C2008       C  0.93205627  0.91844115  0.11894293     0.29730
C2009       C  0.95908328  0.94908399  0.13279981    -0.21090
C2010       C  0.96680933  0.95411117  0.17453102    -0.09140
C2011       C  0.95217303  0.92343810  0.20153993     0.29730
F2012       F  0.96548540  0.92263599  0.24085015    -0.19670
H2013       H  0.90835799  0.87374910  0.21068121     0.18100
H2014       H  0.97174175  0.97097321  0.11093800     0.18100
F2015       F  0.92286534  0.91859650  0.07839709    -0.19660
C2016       C  0.59220140  0.55796443  0.37467797    -0.21090
C2017       C  0.60290467  0.59309915  0.35068847    -0.09130
C2018       C  0.58052173  0.59774028  0.31328393     0.29730
C2019       C  0.55008729  0.56842722  0.30120784    -0.21090
C2020       C  0.54076881  0.53423150  0.32575578    -0.09140
C2021       C  0.56030210  0.53124760  0.36374686     0.29730
F2022       F  0.54436470  0.50562411  0.39259968    -0.19670
H2023       H  0.60367590  0.55368868  0.40527894     0.18100
H2024       H  0.53187654  0.57355762  0.27427964     0.18100
F2025       F  0.58544635  0.63190707  0.28986258    -0.19660
C2026       C  0.64867751  0.57939634  0.47550948    -0.21090
C2027       C  0.67974724  0.55175912  0.46653793    -0.09130
C2028       C  0.69821824  0.55455246  0.42749683     0.29730
C2029       C  0.68397614  0.58357278  0.39845919    -0.21090
C2030       C  0.65247873  0.61219048  0.40814759    -0.09140
C2031       C  0.63888961  0.61120435  0.44970050     0.29730
F2032       F  0.61324894  0.63808302  0.46684951    -0.19670
H2033       H  0.63216909  0.57748756  0.50436190     0.18100
H2034       H  0.69524796  0.58091097  0.36747634     0.18100
F2035       F  0.72788989  0.52796525  0.41626415    -0.19660
C2036       C  0.57394344  0.70737991  0.44677051    -0.21090
C2037       C  0.54036951  0.68236583  0.46009236    -0.09130
C2038       C  0.53072195  0.64743981  0.43676660     0.29730
C2039       C  0.55111621  0.63944383  0.40056288    -0.21090
C2040       C  0.58996124  0.65790212  0.39201466    -0.09140
C2041       C  0.59904577  0.69518739  0.41338435     0.29730
F2042       F  0.63545776  0.71553715  0.40730065    -0.19670
H2043       H  0.58353186  0.73386443  0.46467916     0.18100
H2044       H  0.53931755  0.61326647  0.38406232     0.18100
F2045       F  0.50639708  0.61685137  0.45176301    -0.19660
C2046       C  0.57562653  0.80825261  0.39189403    -0.21090
C2047       C  0.59944543  0.84383710  0.40112891    -0.09130
C2048       C  0.59863734  0.85565804  0.44319146     0.29730
C2049       C  0.56688800  0.84315014  0.46900532    -0.21090
C2050       C  0.53919132  0.81167915  0.45811878    -0.09140
C2051       C  0.54601166  0.79256285  0.41954999     0.29730
F2052       F  0.52019364  0.76252652  0.40561607    -0.19670
H2053       H  0.57600488  0.79482978  0.36164687     0.18100
H2054       H  0.56241805  0.86127044  0.49611138     0.18100
F2055       F  0.62778715  0.87953357  0.46088475    -0.19660
C2056       C  0.52062638  0.91922460  0.32450195    -0.21090
C2057       C  0.53681193  0.95810306  0.31283118    -0.09130
C2058       C  0.58003559  0.95883840  0.30398235     0.29730
C2059       C  0.60555214  0.92568976  0.31342014    -0.21090
C2060       C  0.59045801  0.89190000  0.33617910    -0.09140
C2061       C  0.54678240  0.88656371  0.33556502     0.29730
F2062       F  0.52868555  0.84947428  0.34214950    -0.19670
H2063       H  0.48809976  0.91296296  0.32539598     0.18100
H2064       H  0.63856728  0.92990461  0.30923192     0.18100
F2065       F  0.59919605  0.99312649  0.28959801    -0.19660
C2066       C  0.68591834  0.89973574  0.40684029    -0.21090
C2067       C  0.64663305  0.90626324  0.38887791    -0.09130
C2068       C  0.62533539  0.94164482  0.40263682     0.29730
C2069       C  0.64303041  0.97006181  0.42987863    -0.21090
C2070       C  0.67939984  0.96103443  0.45104865    -0.09140
C2071       C  0.70038462  0.92490218  0.43941691     0.29730
F2072       F  0.73022010  0.90971968  0.46416617    -0.19670
H2073       H  0.70187139  0.87128651  0.40110631     0.18100
H2074       H  0.62375663  0.99462344  0.44081092     0.18100
F2075       F  0.58409516  0.94397490  0.39721682    -0.19660
C2076       C  0.79502781  0.57868308  0.45210558    -0.21090
C2077       C  0.81676402  0.54235766  0.46068305    -0.09130
C2078       C  0.84847752  0.53168454  0.43324817     0.29730
C2079       C  0.85749119  0.55601736  0.39896647    -0.21090
C2080       C  0.84051066  0.59589374  0.39409973    -0.09140
C2081       C  0.80668782  0.60523702  0.41982058     0.29730
F2082       F  0.78874254  0.64266316  0.41770811    -0.19670
H2083       H  0.77141430  0.58866363  0.47306424     0.18100
H2084       H  0.88369018  0.54621300  0.38143207     0.18100
F2085       F  0.87597825  0.50210144  0.44284138    -0.19660
C2086       C  0.88864579  0.58919734  0.31269086    -0.21090
C2087       C  0.90110725  0.61278797  0.34688001    -0.09130
C2088       C  0.94210865  0.60696728  0.36070208     0.29730
C2089       C  0.96341247  0.57197366  0.35018763    -0.21090
C2090       C  0.95011700  0.54604935  0.31840910    -0.09140
C2091       C  0.91278306  0.55673655  0.29859437     0.29730
F2092       F  0.89601100  0.53301962  0.26925877    -0.19670
H2093       H  0.85794911  0.59232267  0.29988957     0.18100
H2094       H  0.98846375  0.56404470  0.37014804     0.18210
F2095       F  0.96138171  0.63243394  0.38713981    -0.19660
C2096       C  0.89744788  0.63404927  0.44700868    -0.21090
C2097       C  0.88894838  0.65651833  0.41087652    -0.09130
C2098       C  0.91284390  0.69383608  0.40612778     0.29730
C2099       C  0.94265709  0.70586435  0.43591110    -0.21090
C2100       C  0.95085998  0.68133516  0.47002254    -0.09140
C2101       C  0.92962777  0.64409671  0.47292066     0.29730
F2102       F  0.94449029  0.61413800  0.49688950    -0.19670
H2103       H  0.88396114  0.60466523  0.45344287     0.18100
H2104       H  0.96124761  0.73280386  0.43097942     0.18100
F2105       F  0.91273866  0.71597166  0.37108893    -0.19660
C2106       C  0.85532526  0.89004031  0.45372863    -0.21090
C2107       C  0.83856131  0.89034402  0.41401381    -0.09130
C2108       C  0.80860871  0.92128386  0.40639123     0.29730
C2109       C  0.79828026  0.95015682  0.43716544    -0.21090
C2110       C  0.81948826  0.95088898  0.47494060    -0.09140
C2111       C  0.85054406  0.92233022  0.48052065     0.29730
F2112       F  0.87922382  0.92765744  0.51065773    -0.19670
H2113       H  0.88001554  0.87074188  0.46170195     0.18100
H2114       H  0.77521180  0.97286160  0.43076856     0.18100
F2115       F  0.79228117  0.92665387  0.36851405    -0.19660
C2116       C  0.93944880  0.84651597  0.38543091    -0.21090
C2117       C  0.89784101  0.83968578  0.39509806    -0.09130
C2118       C  0.88986047  0.80825876  0.42441931     0.29730
C2119       C  0.92207482  0.79578757  0.45111272    -0.21090
C2120       C  0.96175007  0.81502806  0.44911863    -0.09140
C2121       C  0.96867198  0.84197776  0.41581252     0.29730
F2122       F  0.00181900  0.86804329  0.41452635    -0.19670
H2123       H  0.94841616  0.86408571  0.35879433     0.18100
H2124       H  0.91508945  0.77394639  0.47521251     0.18100
F2125       F  0.85053739  0.79516236  0.43178497    -0.19660
C2126       C  0.88510274  0.91950647  0.31888020    -0.21090
C2127       C  0.88766821  0.90871405  0.36046767    -0.09130
C2128       C  0.91567599  0.93256317  0.38548937     0.29730
C2129       C  0.94130923  0.96270026  0.36891655    -0.21090
C2130       C  0.94093714  0.97089494  0.32711993    -0.09140
C2131       C  0.91070363  0.95062482  0.30268853     0.29730
F2132       F  0.90540099  0.96009055  0.26304900    -0.19670
H2133       H  0.86405917  0.90358439  0.29825830     0.18100
H2134       H  0.96296957  0.97888550  0.38890129     0.18100
F2135       F  0.92305844  0.92367343  0.42531881    -0.19660
N2136       N  0.67147110  0.69885877  0.70126023    -0.05900
N2137       N  0.64258363  0.68811322  0.67424615    -0.58020
N2138       N  0.69628771  0.67104827  0.79640019    -0.05580
N2139       N  0.68658725  0.64261994  0.82408506    -0.60150
N2140       N  0.66801945  0.69989002  0.79599072    -0.05180
N2141       N  0.63911669  0.69154495  0.82369248    -0.58000
N2142       N  0.70101972  0.67129298  0.70171392    -0.04860
N2143       N  0.69271813  0.64186100  0.67470411    -0.60500
C2144       C  0.65672746  0.65315901  0.65669180     0.96270
C2145       C  0.65109172  0.65579003  0.84160495     0.96050
N2146       N  0.82410784  0.70234061  0.80159246    -0.06090
N2147       N  0.85257595  0.69410196  0.82932373    -0.58600
N2148       N  0.80216270  0.67094624  0.70641376    -0.04210
N2149       N  0.81443953  0.64163717  0.68076247    -0.59850
N2150       N  0.83019329  0.70086276  0.70780535    -0.06120
N2151       N  0.86151595  0.69220482  0.68328017    -0.58870
N2152       N  0.79554710  0.67304383  0.80110649    -0.03850
N2153       N  0.80413785  0.64479564  0.82905649    -0.59940
Mn2154     Mn  0.74860512  0.67076667  0.75117539     1.18440
C2155       C  0.83966158  0.65869120  0.84727971     0.98360
C2156       C  0.85166761  0.65512994  0.66595072     0.99020
N2157       N  0.66719255  0.79939414  0.79495205    -0.06140
N2158       N  0.63736021  0.80817743  0.82108876    -0.62450
N2159       N  0.69889147  0.82814621  0.70138949    -0.04940
N2160       N  0.69019291  0.85715299  0.67422191    -0.63120
N2161       N  0.67086655  0.79828710  0.69941992    -0.05640
N2162       N  0.64337068  0.80640942  0.67026226    -0.62710
N2163       N  0.69603153  0.82844771  0.79622138    -0.04540
N2164       N  0.68624059  0.85713822  0.82329466    -0.63400
Mn2165     Mn  0.66855203  0.74907256  0.74786371     1.10660
C2166       C  0.64980552  0.84383860  0.83959534     0.99580
C2167       C  0.65599844  0.84309833  0.65387603     0.99660
N2168       N  0.82783253  0.80103822  0.70786362    -0.05650
N2169       N  0.85796467  0.81052805  0.68208453    -0.61020
N2170       N  0.79490289  0.82960231  0.80045407    -0.04970
N2171       N  0.80319368  0.85847297  0.82826861    -0.57750
N2172       N  0.82316681  0.80085682  0.80180480    -0.06280
N2173       N  0.85075879  0.80970775  0.83061601    -0.60590
N2174       N  0.79885534  0.82910729  0.70629420    -0.05270
N2175       N  0.80880855  0.85782624  0.67917414    -0.57780
Mn2176     Mn  0.82680369  0.75136313  0.75462039     1.20190
Mn2177     Mn  0.74714885  0.82953986  0.75099281     1.10090
Cl2178     Cl  0.74774883  0.75010429  0.75077454    -0.85750
C2179       C  0.84581597  0.84595578  0.66401141     0.96590
C2180       C  0.83806705  0.84564720  0.84742989     0.96380
C2181       C  0.86436982  0.87048028  0.87891787    -0.02270
C2182       C  0.86735108  0.63195428  0.87466109    -0.02270
C2183       C  0.62156745  0.87052494  0.86667584    -0.02270
C2184       C  0.62471913  0.63062666  0.87279551    -0.02270
C2185       C  0.96970656  0.50428415  0.81290676     0.00780
C2186       C  0.51274949  0.49901580  0.81323481     0.00780
C2187       C  0.87011473  0.86948361  0.63070496    -0.02270
C2188       C  0.62872093  0.86980498  0.62509427    -0.02270
C2189       C  0.99729821  0.80861345  0.97928565     0.00780
C2190       C  0.99297722  0.80973693  0.52215338     0.00780
C2191       C  0.62920443  0.62296596  0.63248083    -0.02270
C2192       C  0.98515976  0.49459815  0.68847479     0.00780
C2193       C  0.52744434  0.49780151  0.69741386     0.00780
C2194       C  0.68587284  0.97963939  0.49327159     0.00780
C2195       C  0.69031518  0.52193482  0.50046481     0.00780
C2196       C  0.97840752  0.69337283  0.50573560     0.00780
C2197       C  0.52089884  0.68744761  0.50170184     0.00780
C2198       C  0.87945591  0.63388458  0.63287056    -0.02270
C2199       C  0.81276829  0.98071770  0.50969973     0.00780
C2200       C  0.81298029  0.52300172  0.50310986     0.00780
C2201       C  0.81639933  0.58777712  0.60337878    -0.21090
C2202       C  0.85597947  0.60698565  0.59957848    -0.09130
C2203       C  0.87871027  0.59579231  0.56465016     0.29730
C2204       C  0.86260835  0.57165104  0.53349569    -0.21090
C2205       C  0.82376137  0.55311518  0.53665104    -0.09140
C2206       C  0.80114982  0.56011619  0.57289114     0.29730
F2207       F  0.76738047  0.53677961  0.58123560    -0.19670
H2208       H  0.79822121  0.59089522  0.63068457     0.18100
H2209       H  0.88291118  0.56333055  0.50867746     0.18100
F2210       F  0.91852939  0.60639582  0.56160067    -0.19660
C2211       C  0.94147961  0.68528946  0.61920865    -0.21090
C2212       C  0.90125724  0.67089780  0.60987297    -0.09130
C2213       C  0.88374756  0.68804604  0.57422288     0.29730
C2214       C  0.90973210  0.70235928  0.54288108    -0.21090
C2215       C  0.95344312  0.69859922  0.54589363    -0.09140
C2216       C  0.96855628  0.69631578  0.58681490     0.29730
F2217       F  0.00848754  0.70428909  0.59670105    -0.19670
H2218       H  0.95436487  0.68020286  0.64946452     0.18100
H2219       H  0.89505662  0.71140961  0.51448588     0.18100
F2220       F  0.84240521  0.68521146  0.56701913    -0.19660
C2221       C  0.97219520  0.55727847  0.64620233    -0.21090
C2222       C  0.95839501  0.53070092  0.67653840    -0.09130
C2223       C  0.91624863  0.53408620  0.68680718     0.29730
C2224       C  0.89355602  0.56958061  0.67662276    -0.21090
C2225       C  0.91050777  0.60154080  0.65207301    -0.09140
C2226       C  0.95126898  0.59309347  0.63662822     0.29730
F2227       F  0.97233086  0.61642052  0.60975137    -0.19670
H2228       H  0.00134108  0.55145996  0.63109776     0.18100
H2229       H  0.86122855  0.57025587  0.68501314     0.18100
F2230       F  0.89515132  0.50100536  0.70120973    -0.19660
C2231       C  0.56741632  0.61809923  0.58373362    -0.21090
C2232       C  0.59947248  0.64291123  0.60098925    -0.09130
C2233       C  0.60724452  0.68144375  0.58216267     0.29730
C2234       C  0.58318733  0.69421132  0.54888369    -0.21090
C2235       C  0.54780657  0.67214505  0.53597925    -0.09140
C2236       C  0.54150902  0.63267858  0.55262809     0.29730
F2237       F  0.51177760  0.60710141  0.53739908    -0.19670
H2238       H  0.56254318  0.58679227  0.59429695     0.18100
H2239       H  0.59395835  0.72048765  0.53218275     0.18100
F2240       F  0.63969798  0.70591965  0.59335498    -0.19660
C2241       C  0.65008032  0.55161195  0.60334869    -0.21090
C2242       C  0.65624633  0.59454892  0.60487828    -0.09130
C2243       C  0.68550668  0.61094029  0.57663636     0.29730
C2244       C  0.70276255  0.58577703  0.54601179    -0.21090
C2245       C  0.69252700  0.54314689  0.54309796    -0.09140
C2246       C  0.67373248  0.52675730  0.57814638     0.29730
F2247       F  0.69403252  0.49777547  0.59943261    -0.19670
H2248       H  0.62939228  0.53578757  0.62359509     0.18100
H2249       H  0.72059381  0.60059118  0.52206826     0.18100
F2250       F  0.69510751  0.65169249  0.57622840    -0.19660
C2251       C  0.53880739  0.57816468  0.69789320    -0.21090
C2252       C  0.55387099  0.53796747  0.70317815    -0.09130
C2253       C  0.59796265  0.53633954  0.70578094     0.29730
C2254       C  0.62270624  0.56816582  0.68961326    -0.21090
C2255       C  0.60424731  0.59944081  0.66648397    -0.09140
C2256       C  0.56292843  0.60813012  0.67734160     0.29730
F2257       F  0.54556467  0.64458813  0.66741660    -0.19670
H2258       H  0.50787769  0.58593810  0.70704239     0.18100
H2259       H  0.65583431  0.56395417  0.68837671     0.18100
F2260       F  0.61777549  0.50175599  0.71735229    -0.19660
C2261       C  0.56596549  0.79962459  0.55216779    -0.21090
C2262       C  0.52847688  0.82042695  0.55078159    -0.09130
C2263       C  0.52284640  0.85224197  0.57907947     0.29730
C2264       C  0.55086677  0.86003262  0.61017251    -0.21090
C2265       C  0.59103271  0.84338355  0.60906973    -0.09140
C2266       C  0.59729403  0.81087923  0.58061270     0.29730
F2267       F  0.63531783  0.79435997  0.57643786    -0.19670
H2268       H  0.57210927  0.77835611  0.52798592     0.18100
H2269       H  0.54222429  0.88482605  0.63003118     0.18100
F2270       F  0.49104125  0.87827364  0.57479988    -0.19660
C2271       C  0.70227711  0.93441034  0.55442707    -0.21090
C2272       C  0.67411313  0.94913947  0.52587484    -0.09130
C2273       C  0.63455251  0.93144482  0.52547438     0.29730
C2274       C  0.62416583  0.89969281  0.55222989    -0.21090
C2275       C  0.65044065  0.88752588  0.58527886    -0.09140
C2276       C  0.69091765  0.90522190  0.58469133     0.29730
F2277       F  0.71855593  0.89811651  0.61486744    -0.19670
H2278       H  0.73070817  0.95133431  0.55706875     0.18100
H2279       H  0.59220557  0.89084312  0.55076004     0.18100
F2280       F  0.60407929  0.94735666  0.50185534    -0.19660
C2281       C  0.59127070  0.89864003  0.68856400    -0.21090
C2282       C  0.61190947  0.90656920  0.65102169    -0.09130
C2283       C  0.60455272  0.94553767  0.63304595     0.29730
C2284       C  0.57331458  0.97041909  0.64604635    -0.21090
C2285       C  0.55308833  0.96283249  0.68259474    -0.09140
C2286       C  0.56231353  0.92651447  0.70424039     0.29730
F2287       F  0.54179700  0.91614441  0.73853732    -0.19670
H2288       H  0.59463529  0.86929713  0.70383021     0.18100
H2289       H  0.56713240  0.99831639  0.62893238     0.18100
F2290       F  0.62688256  0.96129531  0.60255195    -0.19660
C2291       C  0.92046623  0.83549889  0.53180111    -0.21090
C2292       C  0.95202062  0.81017862  0.54503267    -0.09130
C2293       C  0.94928045  0.79615746  0.58624905     0.29730
C2294       C  0.91884106  0.81091650  0.61267498    -0.21090
C2295       C  0.88815182  0.83820918  0.59891443    -0.09140
C2296       C  0.88622368  0.84348068  0.55592788     0.29730
F2297       F  0.85290349  0.85714866  0.53608744    -0.19670
H2298       H  0.92418579  0.85291939  0.50427404     0.18100
H2299       H  0.92342256  0.80550912  0.64505285     0.18100
F2300       F  0.98131081  0.77672586  0.60413910    -0.19660
C2301       C  0.84791855  0.94519195  0.61711753    -0.21090
C2302       C  0.84036884  0.90252400  0.61230433    -0.09130
C2303       C  0.80694752  0.89207532  0.58685880     0.29730
C2304       C  0.79628037  0.91929165  0.55524107    -0.21090
C2305       C  0.81430089  0.95944628  0.55176857    -0.09140
C2306       C  0.84056862  0.97176404  0.58453738     0.29730
F2307       F  0.86683940  0.00430246  0.58232830    -0.19670
H2308       H  0.86718828  0.95689998  0.64173626     0.18100
H2309       H  0.77682568  0.90714631  0.53085634     0.18100
F2310       F  0.79133699  0.85298382  0.58634554    -0.19660
C2311       C  0.92222122  0.89421340  0.68829822    -0.21090
C2312       C  0.90936981  0.89320562  0.64690249    -0.09130
C2313       C  0.93205539  0.91844265  0.61894172     0.29730
C2314       C  0.95908273  0.94908503  0.63279879    -0.21090
C2315       C  0.96680952  0.95411125  0.67452996    -0.09140
C2316       C  0.95217346  0.92343757  0.70153849     0.29730
F2317       F  0.96548539  0.92263468  0.74084878    -0.19670
H2318       H  0.90835937  0.87374785  0.71067923     0.18100
H2319       H  0.97174075  0.97097475  0.61093722     0.18100
F2320       F  0.92286400  0.91859881  0.57839603    -0.19660
C2321       C  0.59221022  0.55796671  0.87467718    -0.21090
C2322       C  0.60291004  0.59310356  0.85068943    -0.09130
C2323       C  0.58052517  0.59774594  0.81328617     0.29730
C2324       C  0.55009119  0.56843266  0.80120989    -0.21090
C2325       C  0.54077447  0.53423584  0.82575698    -0.09140
C2326       C  0.56031046  0.53125018  0.86374666     0.29730
F2327       F  0.54437586  0.50562456  0.89259891    -0.19670
H2328       H  0.60368641  0.55369018  0.90527759     0.18100
H2329       H  0.53187956  0.57356384  0.77428226     0.18100
F2330       F  0.58544753  0.63191407  0.78986635    -0.19660
C2331       C  0.64868220  0.57940622  0.97551336    -0.21090
C2332       C  0.67974612  0.55176235  0.96654031    -0.09130
C2333       C  0.69821653  0.55455328  0.92749864     0.29730
C2334       C  0.68397746  0.58357498  0.89846100    -0.21090
C2335       C  0.65248327  0.61219602  0.90814956    -0.09140
C2336       C  0.63889827  0.61121539  0.94970362     0.29730
F2337       F  0.61326982  0.63810500  0.96685437    -0.19670
H2338       H  0.63217575  0.57750212  0.00436704     0.18100
H2339       H  0.69524781  0.58091122  0.86747773     0.18100
F2340       F  0.72788545  0.52796324  0.91626564    -0.19660
C2341       C  0.57393922  0.70738546  0.94676787    -0.21090
C2342       C  0.54036963  0.68236821  0.96009417    -0.09130
C2343       C  0.53072640  0.64743775  0.93677395     0.29730
C2344       C  0.55112086  0.63943943  0.90057109    -0.21090
C2345       C  0.58996198  0.65790361  0.89201703    -0.09140
C2346       C  0.59904156  0.69519298  0.91338158     0.29730
F2347       F  0.63544985  0.71554803  0.90729356    -0.19670
H2348       H  0.58352514  0.73387234  0.96467361     0.18100
H2349       H  0.53932452  0.61325872  0.88407460     0.18100
F2350       F  0.50640264  0.61685004  0.95177366    -0.19660
C2351       C  0.57562349  0.80825322  0.89188922    -0.21090
C2352       C  0.59944720  0.84383361  0.90112650    -0.09130
C2353       C  0.59864654  0.85564735  0.94319079     0.29730
C2354       C  0.56689556  0.84314343  0.96900482    -0.21090
C2355       C  0.53919210  0.81167888  0.95811645    -0.09140
C2356       C  0.54600757  0.79256535  0.91954508     0.29730
F2357       F  0.52018545  0.76253337  0.90560957    -0.19670
H2358       H  0.57599886  0.79483350  0.86164050     0.18100
H2359       H  0.56242978  0.86126239  0.99611181     0.18100
F2360       F  0.62780713  0.87950947  0.96088503    -0.19660
C2361       C  0.52062815  0.91922970  0.82450314    -0.21090
C2362       C  0.53681548  0.95810724  0.81283263    -0.09130
C2363       C  0.58003922  0.95884092  0.80398459     0.29730
C2364       C  0.60555397  0.92569081  0.81342153    -0.21090
C2365       C  0.59045834  0.89190107  0.83617956    -0.09140
C2366       C  0.54678225  0.88656748  0.83556633     0.29730
F2367       F  0.52868226  0.84948012  0.84215325    -0.19670
H2368       H  0.48810136  0.91297011  0.82539720     0.18100
H2369       H  0.63856929  0.92990438  0.80923353     0.18100
F2370       F  0.59920190  0.99312898  0.78960305    -0.19660
C2371       C  0.68591985  0.89974114  0.90683553    -0.21090
C2372       C  0.64663091  0.90626333  0.88887914    -0.09130
C2373       C  0.62532948  0.94164064  0.90264280     0.29730
C2374       C  0.64302555  0.97006118  0.92988053    -0.21090
C2375       C  0.67939811  0.96103721  0.95104688    -0.09140
C2376       C  0.70038577  0.92490767  0.93941219     0.29730
F2377       F  0.73022309  0.90972631  0.96415989    -0.19670
H2378       H  0.70187627  0.87129446  0.90109862     0.18100
H2379       H  0.62375077  0.99462118  0.94081502     0.18100
F2380       F  0.58408772  0.94396396  0.89722886    -0.19660
C2381       C  0.79502827  0.57868263  0.95210396    -0.21090
C2382       C  0.81676521  0.54235793  0.96068254    -0.09130
C2383       C  0.84848031  0.53168579  0.93324909     0.29730
C2384       C  0.85749526  0.55601920  0.89896791    -0.21090
C2385       C  0.84051348  0.59589496  0.89410016    -0.09140
C2386       C  0.80668900  0.60523698  0.91981947     0.29730
F2387       F  0.78874259  0.64266253  0.91770630    -0.19670
H2388       H  0.77141344  0.58866244  0.97306146     0.18100
H2389       H  0.88369503  0.54621557  0.88143417     0.18100
F2390       F  0.87598012  0.50210211  0.94284313    -0.19660
C2391       C  0.88865259  0.58920314  0.81269156    -0.21090
C2392       C  0.90111180  0.61279138  0.84688311    -0.09130
C2393       C  0.94211233  0.60696909  0.86070805     0.29730
C2394       C  0.96341733  0.57197689  0.85019133    -0.21090
C2395       C  0.95012360  0.54605541  0.81841009    -0.09140
C2396       C  0.91279116  0.55674397  0.79859378     0.29730
F2397       F  0.89602201  0.53302939  0.76925470    -0.19670
H2398       H  0.85795685  0.59232942  0.79988833     0.18100
H2399       H  0.98846797  0.56404586  0.87015191     0.18210
F2400       F  0.96138324  0.63243188  0.88715096    -0.19660
C2401       C  0.89744623  0.63405339  0.94701157    -0.21090
C2402       C  0.88894877  0.65652142  0.91087832    -0.09130
C2403       C  0.91284537  0.69383837  0.90612914     0.29730
C2404       C  0.94265826  0.70586643  0.93591277    -0.21090
C2405       C  0.95086072  0.68133721  0.97002415    -0.09140
C2406       C  0.92962751  0.64409932  0.97292246     0.29730
F2407       F  0.94448937  0.61413995  0.99689070    -0.19670
H2408       H  0.88395745  0.60467050  0.95344682     0.18100
H2409       H  0.96124881  0.73280587  0.93098181     0.18100
F2410       F  0.91274094  0.71597348  0.87108997    -0.19660
C2411       C  0.85531964  0.89003704  0.95372713    -0.21090
C2412       C  0.83856150  0.89034712  0.91401001    -0.09130
C2413       C  0.80861166  0.92128935  0.90638709     0.29730
C2414       C  0.79828277  0.95016084  0.93716236    -0.21090
C2415       C  0.81948701  0.95088841  0.97493976    -0.09140
C2416       C  0.85053863  0.92232521  0.98052128     0.29730
F2417       F  0.87921674  0.92764768  0.01066063    -0.19670
H2418       H  0.88000660  0.87073541  0.96170217     0.18100
H2419       H  0.77521700  0.97286803  0.93076462     0.18100
F2420       F  0.79228890  0.92666371  0.86850845    -0.19660
C2421       C  0.93945433  0.84653112  0.88543370    -0.21090
C2422       C  0.89784595  0.83969430  0.89509450    -0.09130
C2423       C  0.88986571  0.80826243  0.92441072     0.29730
C2424       C  0.92207806  0.79579250  0.95110717    -0.21090
C2425       C  0.96175192  0.81503633  0.94911877    -0.09140
C2426       C  0.96867494  0.84199150  0.91581750     0.29730
F2427       F  0.00182269  0.86805667  0.91453625    -0.19670
H2428       H  0.94842312  0.86410384  0.85879983     0.18100
H2429       H  0.91509198  0.77394891  0.97520463     0.18100
F2430       F  0.85054327  0.79515995  0.93176957    -0.19660
C2431       C  0.88510656  0.91951336  0.81887727    -0.21090
C2432       C  0.88766842  0.90872229  0.86046527    -0.09130
C2433       C  0.91567192  0.93257392  0.88548923     0.29730
C2434       C  0.94130807  0.96270936  0.86891743    -0.21090
C2435       C  0.94094045  0.97090193  0.82712029    -0.09140
C2436       C  0.91070845  0.95063187  0.80268721     0.29730
F2437       F  0.90540824  0.96009838  0.76304770    -0.19670
H2438       H  0.86406525  0.90359001  0.79825401     0.18100
H2439       H  0.96296649  0.97889544  0.88890357     0.18100
F2440       F  0.92304790  0.92368707  0.92532053    -0.19660
loop_ 
_geom_bond_atom_site_label_1 
_geom_bond_atom_site_label_2 
_geom_bond_distance 
_geom_bond_site_symmetry_2 
_ccdc_geom_bond_type 
N1            N2   1.324       .  A
N1            N7   1.320       .  A
N1          Mn30   2.231       .  S
N2            C9   1.358       .  A
N3            N5   1.319       .  A
N3            N4   1.326       .  A
N3          Mn19   2.249       .  S
N4           C10   1.359       .  A
N5            N6   1.327       .  A
N5          Mn30   2.240       .  S
N6           C10   1.361       .  A
N7            N8   1.323       .  A
N7          Mn19   2.225       .  S
N8            C9   1.357       .  A
C9           C56   1.530       .  S
C10          C49   1.554       .  S
N11          N17   1.315       .  A
N11          N12   1.318       .  A
N11         Mn41   2.211       .  S
N12          C20   1.352       .  A
N13          N14   1.333       .  A
N13          N15   1.318       .  A
N13         Mn19   2.269       .  S
N14          C21   1.365       .  A
N15          N16   1.327       .  A
N15         Mn41   2.244       .  S
N16          C21   1.362       .  A
N17          N18   1.325       .  A
N17         Mn19   2.222       .  S
N18          C20   1.361       .  A
Mn19        Cl43   2.577       .  S
C20          C47   1.540       .  S
C21          C63   1.573       .  S
N22          N23   1.324       .  A
N22          N28   1.316       .  A
N22         Mn30   2.242       .  S
N23          C31   1.360       .  A
N24          N26   1.318       .  A
N24          N25   1.326       .  A
N24         Mn42   2.243       .  S
N25          C32   1.359       .  A
N26          N27   1.328       .  A
N26         Mn30   2.248       .  S
N27          C32   1.363       .  A
N28          N29   1.326       .  A
N28         Mn42   2.220       .  S
N29          C31   1.359       .  A
Mn30        Cl43   2.562       .  S
C31          C48   1.548       .  S
C32          C53   1.559       .  S
N33          N34   1.322       .  A
N33          N39   1.318       .  A
N33         Mn41   2.220       .  S
N34          C44   1.356       .  A
N35          N36   1.327       .  A
N35          N37   1.317       .  A
N35         Mn42   2.228       .  S
N36          C45   1.358       .  A
N37          N38   1.321       .  A
N37         Mn41   2.229       .  S
N38          C45   1.359       .  A
N39          N40   1.323       .  A
N39         Mn42   2.223       .  S
N40          C44   1.358       .  A
Mn41        Cl43   2.558       .  S
Mn42        Cl43   2.580       .  S
C44          C52   1.539       .  S
C45          C46   1.548       .  S
C46         C277   1.564       .  S
C46         C287   1.575       .  S
C46         C297   1.564       .  S
C47         C250   1.581       .  S
C47         C257   1.558       .  S
C47         C267   1.579       .  S
C48         C217   1.585       .  S
C48         C230   1.580       .  S
C48         C237   1.578       .  S
C49         C187   1.571       .  S
C49         C200   1.582       .  S
C49         C210   1.574       .  S
C50         C260   1.517       .  S
C50         C910   1.493   1_545  S
C50        C1271   1.405   1_545  D
C51         C190   1.503   1_565  S
C51         C837   1.550       .  S
C51        C1270   1.405   1_465  D
C52         C160   1.571       .  S
C52         C167   1.570       .  S
C52         C177   1.564       .  S
C53         C130   1.567       .  S
C53         C140   1.583       .  S
C53         C147   1.568       .  S
C54         C290   1.527       .  S
C54        C1440   1.525       .  S
C54         C360   1.406       .  D
C55         C157   1.523       .  S
C55        C1347   1.512       .  S
C55         C359   1.406   1_554  D
C56          C97   1.553       .  S
C56         C107   1.568       .  S
C56         C120   1.566       .  S
C57          C87   1.518   1_565  S
C57         C790   1.503       .  S
C57        C1278   1.399       .  D
C58         C117   1.558   1_565  S
C58         C760   1.498       .  S
C58        C1277   1.399   1_455  D
C59         C137   1.499   1_556  S
C59         C545   1.515       .  S
C59         C670   1.398   1_556  D
C60         C110   1.552       .  S
C60         C502   1.512   1_554  S
C60         C669   1.398   1_544  D
C61          C80   1.552       .  S
C61         C575   1.511   1_554  S
C61        C1282   1.397       .  D
C62         C100   1.503       .  S
C62         C512   1.508   1_554  S
C62        C1281   1.397   1_455  D
C63          C67   1.577       .  S
C63          C77   1.575       .  S
C63          C90   1.591       .  S
C64         C170   1.537       .  S
C64         C585   1.509   1_554  S
C64         C675   1.390       .  D
C65          C70   1.503       .  S
C65         C552   1.525   1_554  S
C65         C674   1.390   1_545  D
C66          C67   1.421       .  A
C66          C71   1.421       .  A
C66          H73   1.075       .  S
C67          C68   1.409       .  A
C68          C69   1.378       .  A
C68          F75   1.331       .  S
C69          C70   1.388       .  A
C69          H74   1.081       .  S
C70          C71   1.412       .  A
C71          F72   1.348       .  S
C76          C77   1.407       .  A
C76          C81   1.417       .  A
C76          H83   1.083       .  S
C77          C78   1.410       .  A
C78          C79   1.401       .  A
C78          F85   1.358       .  S
C79          C80   1.424       .  A
C79          H84   1.082       .  S
C80          C81   1.421       .  A
C81          F82   1.350       .  S
C86          C87   1.384       .  A
C86          C91   1.390       .  A
C86          H93   1.084       .  S
C87          C88   1.411       .  A
C88          C89   1.415       .  A
C88          F95   1.349       .  S
C89          C90   1.416       .  A
C89          H94   1.082       .  S
C90          C91   1.443       .  A
C91          F92   1.340       .  S
C96          C97   1.417       .  A
C96         C101   1.400       .  A
C96         H103   1.083       .  S
C97          C98   1.413       .  A
C98          C99   1.399       .  A
C98         F105   1.355       .  S
C99         C100   1.403       .  A
C99         H104   1.067       .  S
C100        C101   1.404       .  A
C101        F102   1.353       .  S
C106        C107   1.406       .  A
C106        C111   1.391       .  A
C106        H113   1.068       .  S
C107        C108   1.421       .  A
C108        C109   1.412       .  A
C108        F115   1.354       .  S
C109        C110   1.421       .  A
C109        H114   1.081       .  S
C110        C111   1.398       .  A
C111        F112   1.347   1_545  S
C116        C117   1.411       .  A
C116        C121   1.409       .  A
C116        H123   1.079       .  S
C117        C118   1.430       .  A
C118        C119   1.401       .  A
C118        F125   1.355       .  S
C119        C120   1.405       .  A
C119        H124   1.083       .  S
C120        C121   1.416       .  A
C121        F122   1.357       .  S
C126        C127   1.398       .  A
C126        C131   1.414       .  A
C126        H133   1.069       .  S
C127       C1275   1.512   1_455  S
C127        C128   1.399       .  A
C128        C129   1.377       .  A
C128        F135   1.348   1_455  S
C129        C130   1.415       .  A
C129        H134   1.074       .  S
C130        C131   1.422       .  A
C131        F132   1.357       .  S
C136        C137   1.390       .  A
C136        C141   1.414       .  A
C136        H143   1.067       .  S
C137        C138   1.394       .  A
C138        C139   1.389       .  A
C138        F145   1.357       .  S
C139        C140   1.429       .  A
C139        H144   1.069       .  S
C140        C141   1.421       .  A
C141        F142   1.349       .  S
C146        C147   1.418       .  A
C146        C151   1.410       .  A
C146        H153   1.082       .  S
C147        C148   1.418       .  A
C148        C149   1.372       .  A
C148        F155   1.329       .  S
C149        C150   1.382       .  A
C149        H154   1.085       .  S
C150        C668   1.498       .  S
C150        C151   1.410       .  A
C151        F152   1.343       .  S
C156        C157   1.388       .  A
C156        C161   1.389       .  A
C156        H163   1.067       .  S
C157        C158   1.422       .  A
C158        C159   1.401       .  A
C158        F165   1.352       .  S
C159        C160   1.413       .  A
C159        H164   1.080       .  S
C160        C161   1.413       .  A
C161        F162   1.336       .  S
C166        C167   1.411       .  A
C166        C171   1.391       .  A
C166        H173   1.079       .  S
C167        C168   1.397       .  A
C168        C169   1.404       .  A
C168        F175   1.358       .  S
C169        C170   1.424       .  A
C169        H174   1.082       .  S
C170        C171   1.416       .  A
C171        F172   1.347       .  S
C176        C177   1.411       .  A
C176        C181   1.411       .  A
C176        H183   1.081       .  S
C177        C178   1.424       .  A
C178        C179   1.388       .  A
C178        F185   1.354       .  S
C179        C180   1.391       .  A
C179        H184   1.084       .  S
C180        C667   1.503       .  S
C180        C181   1.407       .  A
C181        F182   1.351       .  S
C186        C187   1.423       .  A
C186        C191   1.382       .  A
C186        H193   1.073       .  S
C187        C188   1.425       .  A
C188        C189   1.413       .  A
C188        F195   1.355       .  S
C189        C190   1.399       .  A
C189        H194   1.070       .  S
C190        C191   1.392       .  A
C191        F192   1.354       .  S
C196        C197   1.390       .  A
C196        C201   1.373       .  A
C196        H203   1.085       .  S
C197        C365   1.512       .  S
C197        C198   1.411       .  A
C198        C199   1.417       .  A
C198        F205   1.352       .  S
C199        C200   1.426       .  A
C199        H204   1.079       .  S
C200        C201   1.426       .  A
C201        F202   1.337       .  S
C206        C207   1.415       .  A
C206        C211   1.420       .  A
C206        H213   1.080       .  S
C207        C367   1.508       .  S
C207        C208   1.395       .  A
C208        C209   1.381       .  A
C208        F215   1.350       .  S
C209        C210   1.412       .  A
C209        H214   1.070       .  S
C210        C211   1.422       .  A
C211        F212   1.356       .  S
C216        C217   1.410       .  A
C216        C221   1.408       .  A
C216        H223   1.078       .  S
C217        C218   1.424       .  A
C218        C219   1.386       .  A
C218        F225   1.339       .  S
C219        C220   1.393       .  A
C219        H224   1.073       .  S
C220       C1274   1.525   1_455  S
C220        C221   1.422       .  A
C221        F222   1.351       .  S
C226        C227   1.412       .  A
C226        C231   1.413       .  A
C226        H233   1.068   1_455  S
C227        C661   1.550       .  S
C227        C228   1.428       .  A
C228        C229   1.400       .  A
C228        F235   1.351       .  S
C229        C230   1.407       .  A
C229        H234   1.083       .  S
C230        C231   1.420       .  A
C231        F232   1.348       .  S
C236        C237   1.416       .  A
C236        C241   1.413       .  A
C236        H243   1.082       .  S
C237        C238   1.422       .  A
C238        C239   1.395       .  A
C238        F245   1.348       .  S
C239        C240   1.396       .  A
C239        H244   1.081       .  S
C240        C364   1.515       .  S
C240        C241   1.417       .  A
C241        F242   1.354       .  S
C246        C247   1.410       .  A
C246        C251   1.410       .  A
C246        H253   1.080       .  S
C247        C370   1.524       .  S
C247        C248   1.411       .  A
C248        C249   1.398       .  A
C248        F255   1.355       .  S
C249        C250   1.423       .  A
C249        H254   1.076       .  S
C250        C251   1.418       .  A
C251        F252   1.357       .  S
C256        C257   1.406       .  A
C256        C261   1.400       .  A
C256        H263   1.081       .  S
C257        C258   1.414       .  A
C258        C259   1.382       .  A
C258        F265   1.339       .  S
C259        C260   1.397       .  A
C259        H264   1.072       .  S
C260        C261   1.415       .  A
C261        F262   1.335       .  S
C266        C267   1.415       .  A
C266        C271   1.373       .  A
C266        H273   1.064       .  S
C267        C268   1.435       .  A
C268        C269   1.416       .  A
C268        F275   1.350       .  S
C269        C270   1.396       .  A
C269        H274   1.066       .  S
C270        C366   1.511       .  S
C270        C271   1.384       .  A
C271        F272   1.342       .  S
C276        C277   1.402       .  A
C276        C281   1.375       .  A
C276        H283   1.055       .  S
C277        C278   1.428       .  A
C278        C279   1.417       .  A
C278        F285   1.354       .  S
C279        C280   1.407       .  A
C279        H284   1.077       .  S
C280        C369   1.509       .  S
C280        C281   1.389       .  A
C281        F282   1.357       .  S
C286        C287   1.397       .  A
C286        C291   1.376       .  A
C286        H293   1.078       .  S
C287        C288   1.420       .  A
C288        C289   1.419       .  A
C288        F295   1.357       .  S
C289        C290   1.420       .  A
C289        H294   1.081       .  S
C290        C291   1.412       .  A
C291        F292   1.356       .  S
C296        C297   1.403       .  A
C296        C301   1.401       .  A
C296        H303   1.080       .  S
C297        C298   1.434       .  A
C298        C299   1.384       .  A
C298        F305   1.352       .  S
C299        C300   1.389       .  A
C299        H304   1.084       .  S
C300        C660   1.493       .  S
C300        C301   1.413       .  A
C301        F302   1.340       .  S
N306        N307   1.324       .  A
N306        N312   1.320       .  A
N306       Mn335   2.231       .  S
N307        C314   1.358       .  A
N308        N310   1.319       .  A
N308        N309   1.326       .  A
N308       Mn324   2.249       .  S
N309        C315   1.359       .  A
N310        N311   1.327       .  A
N310       Mn335   2.240       .  S
N311        C315   1.361       .  A
N312        N313   1.323       .  A
N312       Mn324   2.225       .  S
N313        C314   1.357       .  A
C314        C361   1.530       .  S
C315        C354   1.554       .  S
N316        N322   1.315       .  A
N316        N317   1.318       .  A
N316       Mn346   2.211       .  S
N317        C325   1.352       .  A
N318        N319   1.333       .  A
N318        N320   1.318       .  A
N318       Mn324   2.269       .  S
N319        C326   1.365       .  A
N320        N321   1.327       .  A
N320       Mn346   2.244       .  S
N321        C326   1.362       .  A
N322        N323   1.325       .  A
N322       Mn324   2.222       .  S
N323        C325   1.361       .  A
Mn324      Cl348   2.577       .  S
C325        C352   1.540       .  S
C326        C368   1.573       .  S
N327        N328   1.324       .  A
N327        N333   1.316       .  A
N327       Mn335   2.242       .  S
N328        C336   1.360       .  A
N329        N331   1.318       .  A
N329        N330   1.326       .  A
N329       Mn347   2.243       .  S
N330        C337   1.359       .  A
N331        N332   1.328       .  A
N331       Mn335   2.248       .  S
N332        C337   1.363       .  A
N333        N334   1.326       .  A
N333       Mn347   2.220       .  S
N334        C336   1.359       .  A
Mn335      Cl348   2.562       .  S
C336        C353   1.548       .  S
C337        C358   1.559       .  S
N338        N339   1.322       .  A
N338        N344   1.318       .  A
N338       Mn346   2.220       .  S
N339        C349   1.356       .  A
N340        N341   1.327       .  A
N340        N342   1.317       .  A
N340       Mn347   2.228       .  S
N341        C350   1.358       .  A
N342        N343   1.321       .  A
N342       Mn346   2.229       .  S
N343        C350   1.359       .  A
N344        N345   1.323       .  A
N344       Mn347   2.223       .  S
N345        C349   1.358       .  A
Mn346      Cl348   2.558       .  S
Mn347      Cl348   2.580       .  S
C349        C357   1.539       .  S
C350        C351   1.548       .  S
C351        C582   1.564       .  S
C351        C592   1.575       .  S
C351        C602   1.564       .  S
C352        C555   1.581       .  S
C352        C562   1.558       .  S
C352        C572   1.579       .  S
C353        C522   1.585       .  S
C353        C535   1.580       .  S
C353        C542   1.578       .  S
C354        C492   1.571       .  S
C354        C505   1.582       .  S
C354        C515   1.574       .  S
C355        C565   1.517       .  S
C355       C1215   1.493   1_545  S
C355       C1576   1.405   1_545  D
C356        C495   1.503   1_565  S
C356       C1142   1.550       .  S
C356       C1575   1.405   1_465  D
C357        C465   1.571       .  S
C357        C472   1.570       .  S
C357        C482   1.564       .  S
C358        C435   1.567       .  S
C358        C445   1.583       .  S
C358        C452   1.568       .  S
C359       C1745   1.525       .  S
C359        C595   1.527       .  S
C360       C1652   1.512       .  S
C360        C462   1.523       .  S
C361        C402   1.553       .  S
C361        C412   1.568       .  S
C361        C425   1.566       .  S
C362        C392   1.518   1_565  S
C362       C1095   1.503       .  S
C362       C1583   1.399       .  D
C363        C422   1.558   1_565  S
C363       C1065   1.498       .  S
C363       C1582   1.399   1_455  D
C364        C442   1.499       .  S
C364        C975   1.398       .  D
C365        C415   1.552       .  S
C365        C974   1.398   1_545  D
C366        C385   1.552       .  S
C366       C1587   1.397       .  D
C367        C405   1.503       .  S
C367       C1586   1.397   1_455  D
C368        C372   1.577       .  S
C368        C382   1.575       .  S
C368        C395   1.591       .  S
C369        C475   1.537       .  S
C369        C980   1.390       .  D
C370        C375   1.503       .  S
C370        C979   1.390   1_545  D
C371        C372   1.421       .  A
C371        C376   1.421       .  A
C371        H378   1.075       .  S
C372        C373   1.409       .  A
C373        C374   1.378       .  A
C373        F380   1.331       .  S
C374        C375   1.388       .  A
C374        H379   1.081       .  S
C375        C376   1.412       .  A
C376        F377   1.348       .  S
C381        C382   1.407       .  A
C381        C386   1.417       .  A
C381        H388   1.083       .  S
C382        C383   1.410       .  A
C383        C384   1.401       .  A
C383        F390   1.358       .  S
C384        C385   1.424       .  A
C384        H389   1.082       .  S
C385        C386   1.421       .  A
C386        F387   1.350       .  S
C391        C392   1.384       .  A
C391        C396   1.390       .  A
C391        H398   1.084       .  S
C392        C393   1.411       .  A
C393        C394   1.415       .  A
C393        F400   1.349       .  S
C394        C395   1.416       .  A
C394        H399   1.082       .  S
C395        C396   1.443       .  A
C396        F397   1.340       .  S
C401        C402   1.417       .  A
C401        C406   1.400       .  A
C401        H408   1.083       .  S
C402        C403   1.413       .  A
C403        C404   1.399       .  A
C403        F410   1.355       .  S
C404        C405   1.403       .  A
C404        H409   1.067       .  S
C405        C406   1.404       .  A
C406        F407   1.353       .  S
C411        C412   1.406       .  A
C411        C416   1.391       .  A
C411        H418   1.068       .  S
C412        C413   1.421       .  A
C413        C414   1.412       .  A
C413        F420   1.354       .  S
C414        C415   1.421       .  A
C414        H419   1.081       .  S
C415        C416   1.398       .  A
C416        F417   1.347   1_545  S
C421        C422   1.411       .  A
C421        C426   1.409       .  A
C421        H428   1.079       .  S
C422        C423   1.430       .  A
C423        C424   1.401       .  A
C423        F430   1.355       .  S
C424        C425   1.405       .  A
C424        H429   1.083       .  S
C425        C426   1.416       .  A
C426        F427   1.357       .  S
C431        C432   1.398       .  A
C431        C436   1.414       .  A
C431        H438   1.069       .  S
C432       C1580   1.512   1_455  S
C432        C433   1.399       .  A
C433        C434   1.377       .  A
C433        F440   1.348   1_455  S
C434        C435   1.415       .  A
C434        H439   1.074       .  S
C435        C436   1.422       .  A
C436        F437   1.357       .  S
C441        C442   1.390       .  A
C441        C446   1.414       .  A
C441        H448   1.066       .  S
C442        C443   1.394       .  A
C443        C444   1.389       .  A
C443        F450   1.357       .  S
C444        C445   1.429       .  A
C444        H449   1.069       .  S
C445        C446   1.421       .  A
C446        F447   1.349       .  S
C451        C452   1.418       .  A
C451        C456   1.410       .  A
C451        H458   1.082       .  S
C452        C453   1.418       .  A
C453        C454   1.372       .  A
C453        F460   1.329       .  S
C454        C455   1.382       .  A
C454        H459   1.085       .  S
C455        C973   1.498       .  S
C455        C456   1.410       .  A
C456        F457   1.343       .  S
C461        C462   1.388       .  A
C461        C466   1.389       .  A
C461        H468   1.067       .  S
C462        C463   1.422       .  A
C463        C464   1.401       .  A
C463        F470   1.352       .  S
C464        C465   1.413       .  A
C464        H469   1.080       .  S
C465        C466   1.413       .  A
C466        F467   1.336       .  S
C471        C472   1.411       .  A
C471        C476   1.391       .  A
C471        H478   1.079       .  S
C472        C473   1.397       .  A
C473        C474   1.404       .  A
C473        F480   1.358       .  S
C474        C475   1.424       .  A
C474        H479   1.082       .  S
C475        C476   1.416       .  A
C476        F477   1.347       .  S
C481        C482   1.411       .  A
C481        C486   1.411       .  A
C481        H488   1.081       .  S
C482        C483   1.424       .  A
C483        C484   1.388       .  A
C483        F490   1.354       .  S
C484        C485   1.391       .  A
C484        H489   1.084       .  S
C485        C972   1.503       .  S
C485        C486   1.408       .  A
C486        F487   1.351       .  S
C491        C492   1.423       .  A
C491        C496   1.382       .  A
C491        H498   1.073       .  S
C492        C493   1.425       .  A
C493        C494   1.413       .  A
C493        F500   1.355       .  S
C494        C495   1.399       .  A
C494        H499   1.070       .  S
C495        C496   1.392       .  A
C496        F497   1.354       .  S
C501        C502   1.390       .  A
C501        C506   1.373       .  A
C501        H508   1.085   1_556  S
C502        C503   1.411       .  A
C503        C504   1.417       .  A
C503        F510   1.352       .  S
C504        C505   1.426       .  A
C504        H509   1.079       .  S
C505        C506   1.426       .  A
C506        F507   1.337       .  S
C511        C512   1.415       .  A
C511        C516   1.420       .  A
C511        H518   1.080       .  S
C512        C513   1.395       .  A
C513        C514   1.381       .  A
C513        F520   1.350       .  S
C514        C515   1.412       .  A
C514        H519   1.070       .  S
C515        C516   1.422       .  A
C516        F517   1.356       .  S
C521        C522   1.410       .  A
C521        C526   1.408       .  A
C521        H528   1.078       .  S
C522        C523   1.424       .  A
C523        C524   1.386       .  A
C523        F530   1.339       .  S
C524        C525   1.393       .  A
C524        H529   1.073       .  S
C525       C1579   1.525   1_455  S
C525        C526   1.422       .  A
C526        F527   1.351       .  S
C531        C532   1.412       .  A
C531        C536   1.413       .  A
C531        H538   1.068   1_455  S
C532        C966   1.550       .  S
C532        C533   1.428       .  A
C533        C534   1.400       .  A
C533        F540   1.351       .  S
C534        C535   1.407       .  A
C534        H539   1.083       .  S
C535        C536   1.420       .  A
C536        F537   1.348       .  S
C541        C542   1.416       .  A
C541        C546   1.413       .  A
C541        H548   1.082       .  S
C542        C543   1.422       .  A
C543        C544   1.395       .  A
C543        F550   1.348       .  S
C544        C545   1.396       .  A
C544        H549   1.081       .  S
C545        C546   1.417       .  A
C546        F547   1.354       .  S
C551        C552   1.410       .  A
C551        C556   1.410       .  A
C551        H558   1.080       .  S
C552        C553   1.411       .  A
C553        C554   1.398       .  A
C553        F560   1.355       .  S
C554        C555   1.423       .  A
C554        H559   1.076       .  S
C555        C556   1.418       .  A
C556        F557   1.357       .  S
C561        C562   1.406       .  A
C561        C566   1.400       .  A
C561        H568   1.081       .  S
C562        C563   1.414       .  A
C563        C564   1.382       .  A
C563        F570   1.339       .  S
C564        C565   1.397       .  A
C564        H569   1.072       .  S
C565        C566   1.415       .  A
C566        F567   1.335       .  S
C571        C572   1.415       .  A
C571        C576   1.373       .  A
C571        H578   1.064       .  S
C572        C573   1.435       .  A
C573        C574   1.416       .  A
C573        F580   1.350       .  S
C574        C575   1.396       .  A
C574        H579   1.066       .  S
C575        C576   1.384       .  A
C576        F577   1.342       .  S
C581        C582   1.402       .  A
C581        C586   1.375       .  A
C581        H588   1.055       .  S
C582        C583   1.428       .  A
C583        C584   1.417       .  A
C583        F590   1.354       .  S
C584        C585   1.407       .  A
C584        H589   1.077       .  S
C585        C586   1.389       .  A
C586        F587   1.357   1_556  S
C591        C592   1.397       .  A
C591        C596   1.376       .  A
C591        H598   1.078       .  S
C592        C593   1.420       .  A
C593        C594   1.419       .  A
C593        F600   1.357       .  S
C594        C595   1.420       .  A
C594        H599   1.081       .  S
C595        C596   1.412       .  A
C596        F597   1.356       .  S
C601        C602   1.403       .  A
C601        C606   1.401       .  A
C601        H608   1.080       .  S
C602        C603   1.434       .  A
C603        C604   1.384       .  A
C603        F610   1.352       .  S
C604        C605   1.389       .  A
C604        H609   1.084       .  S
C605        C965   1.493       .  S
C605        C606   1.413       .  A
C606        F607   1.340       .  S
N611        N612   1.324       .  A
N611        N617   1.320       .  A
N611       Mn640   2.231       .  S
N612        C619   1.358       .  A
N613        N615   1.319       .  A
N613        N614   1.326       .  A
N613       Mn629   2.249       .  S
N614        C620   1.359       .  A
N615        N616   1.327       .  A
N615       Mn640   2.240       .  S
N616        C620   1.361       .  A
N617        N618   1.323       .  A
N617       Mn629   2.225       .  S
N618        C619   1.357       .  A
C619        C666   1.530       .  S
C620        C659   1.554       .  S
N621        N627   1.315       .  A
N621        N622   1.318       .  A
N621       Mn651   2.211       .  S
N622        C630   1.352       .  A
N623        N624   1.333       .  A
N623        N625   1.318       .  A
N623       Mn629   2.269       .  S
N624        C631   1.365       .  A
N625        N626   1.327       .  A
N625       Mn651   2.244       .  S
N626        C631   1.362       .  A
N627        N628   1.325       .  A
N627       Mn629   2.222       .  S
N628        C630   1.361       .  A
Mn629      Cl653   2.577       .  S
C630        C657   1.540       .  S
C631        C673   1.573       .  S
N632        N633   1.324       .  A
N632        N638   1.316       .  A
N632       Mn640   2.242       .  S
N633        C641   1.360       .  A
N634        N636   1.318       .  A
N634        N635   1.326       .  A
N634       Mn652   2.243       .  S
N635        C642   1.359       .  A
N636        N637   1.328       .  A
N636       Mn640   2.248       .  S
N637        C642   1.363       .  A
N638        N639   1.326       .  A
N638       Mn652   2.220       .  S
N639        C641   1.359       .  A
Mn640      Cl653   2.562       .  S
C641        C658   1.548       .  S
C642        C663   1.559       .  S
N643        N644   1.322       .  A
N643        N649   1.318       .  A
N643       Mn651   2.220       .  S
N644        C654   1.356       .  A
N645        N646   1.327       .  A
N645        N647   1.317       .  A
N645       Mn652   2.228       .  S
N646        C655   1.358       .  A
N647        N648   1.321       .  A
N647       Mn651   2.229       .  S
N648        C655   1.359       .  A
N649        N650   1.323       .  A
N649       Mn652   2.223       .  S
N650        C654   1.358       .  A
Mn651      Cl653   2.558       .  S
Mn652      Cl653   2.580       .  S
C654        C662   1.539       .  S
C655        C656   1.548       .  S
C656        C887   1.564       .  S
C656        C897   1.575       .  S
C656        C907   1.564       .  S
C657        C860   1.581       .  S
C657        C867   1.558       .  S
C657        C877   1.579       .  S
C658        C827   1.585       .  S
C658        C840   1.580       .  S
C658        C847   1.578       .  S
C659        C797   1.571       .  S
C659        C810   1.582       .  S
C659        C820   1.574       .  S
C660        C870   1.517       .  S
C660       C1881   1.405       .  D
C661        C800   1.503       .  S
C661       C1880   1.405   1_455  D
C662        C770   1.571       .  S
C662        C777   1.570       .  S
C662        C787   1.564       .  S
C663        C740   1.567       .  S
C663        C750   1.583       .  S
C663        C757   1.568       .  S
C664       C2050   1.525       .  S
C664        C900   1.527       .  S
C664        C970   1.406       .  D
C665       C1957   1.512       .  S
C665        C767   1.523       .  S
C665        C969   1.406   1_554  D
C666        C707   1.553       .  S
C666        C717   1.568       .  S
C666        C730   1.566       .  S
C667        C697   1.518       .  S
C667       C1888   1.399       .  D
C668        C727   1.558       .  S
C668       C1887   1.399   1_455  D
C669        C747   1.499   1_556  S
C669       C1155   1.515       .  S
C670        C720   1.552       .  S
C670       C1112   1.512   1_554  S
C671        C690   1.552       .  S
C671       C1185   1.511   1_554  S
C671       C1892   1.397       .  D
C672        C710   1.503       .  S
C672       C1122   1.508   1_554  S
C672       C1891   1.397   1_455  D
C673        C677   1.577       .  S
C673        C687   1.575       .  S
C673        C700   1.591       .  S
C674        C780   1.537       .  S
C674       C1195   1.509   1_554  S
C675        C680   1.503       .  S
C675       C1162   1.524   1_554  S
C676        C677   1.421       .  A
C676        C681   1.421       .  A
C676        H683   1.075       .  S
C677        C678   1.409       .  A
C678        C679   1.378       .  A
C678        F685   1.331       .  S
C679        C680   1.388       .  A
C679        H684   1.081       .  S
C680        C681   1.412       .  A
C681        F682   1.348       .  S
C686        C687   1.407       .  A
C686        C691   1.417       .  A
C686        H693   1.083       .  S
C687        C688   1.410       .  A
C688        C689   1.401       .  A
C688        F695   1.358       .  S
C689        C690   1.424       .  A
C689        H694   1.082       .  S
C690        C691   1.421       .  A
C691        F692   1.350       .  S
C696        C697   1.384       .  A
C696        C701   1.390       .  A
C696        H703   1.084       .  S
C697        C698   1.411       .  A
C698        C699   1.415       .  A
C698        F705   1.349       .  S
C699        C700   1.416       .  A
C699        H704   1.082       .  S
C700        C701   1.443       .  A
C701        F702   1.340       .  S
C706        C707   1.417       .  A
C706        C711   1.400       .  A
C706        H713   1.083       .  S
C707        C708   1.413       .  A
C708        C709   1.399       .  A
C708        F715   1.355       .  S
C709        C710   1.403       .  A
C709        H714   1.067       .  S
C710        C711   1.404       .  A
C711        F712   1.353       .  S
C716        C717   1.406       .  A
C716        C721   1.391       .  A
C716        H723   1.068       .  S
C717        C718   1.421       .  A
C718        C719   1.412       .  A
C718        F725   1.354       .  S
C719        C720   1.421       .  A
C719        H724   1.081       .  S
C720        C721   1.398       .  A
C721        F722   1.347       .  S
C726        C727   1.411       .  A
C726        C731   1.409       .  A
C726        H733   1.079       .  S
C727        C728   1.430       .  A
C728        C729   1.401       .  A
C728        F735   1.355       .  S
C729        C730   1.405       .  A
C729        H734   1.083       .  S
C730        C731   1.416       .  A
C731        F732   1.357       .  S
C736        C737   1.398       .  A
C736        C741   1.414       .  A
C736        H743   1.069       .  S
C737       C1885   1.512   1_455  S
C737        C738   1.399       .  A
C738        C739   1.377       .  A
C738        F745   1.348   1_455  S
C739        C740   1.415       .  A
C739        H744   1.074       .  S
C740        C741   1.422       .  A
C741        F742   1.357       .  S
C746        C747   1.390       .  A
C746        C751   1.414       .  A
C746        H753   1.067       .  S
C747        C748   1.394       .  A
C748        C749   1.389       .  A
C748        F755   1.357       .  S
C749        C750   1.429       .  A
C749        H754   1.069       .  S
C750        C751   1.421       .  A
C751        F752   1.349       .  S
C756        C757   1.418       .  A
C756        C761   1.410       .  A
C756        H763   1.082       .  S
C757        C758   1.418       .  A
C758        C759   1.372       .  A
C758        F765   1.329       .  S
C759        C760   1.382       .  A
C759        H764   1.085       .  S
C760        C761   1.410       .  A
C761        F762   1.343       .  S
C766        C767   1.388       .  A
C766        C771   1.389       .  A
C766        H773   1.067       .  S
C767        C768   1.422       .  A
C768        C769   1.401       .  A
C768        F775   1.352       .  S
C769        C770   1.413       .  A
C769        H774   1.080       .  S
C770        C771   1.413       .  A
C771        F772   1.336       .  S
C776        C777   1.411       .  A
C776        C781   1.391       .  A
C776        H783   1.079       .  S
C777        C778   1.397       .  A
C778        C779   1.404       .  A
C778        F785   1.358       .  S
C779        C780   1.424       .  A
C779        H784   1.082       .  S
C780        C781   1.416       .  A
C781        F782   1.347   1_565  S
C786        C787   1.411       .  A
C786        C791   1.411       .  A
C786        H793   1.081       .  S
C787        C788   1.424       .  A
C788        C789   1.388       .  A
C788        F795   1.354       .  S
C789        C790   1.391       .  A
C789        H794   1.084       .  S
C790        C791   1.408       .  A
C791        F792   1.351       .  S
C796        C797   1.423       .  A
C796        C801   1.382       .  A
C796        H803   1.073       .  S
C797        C798   1.425       .  A
C798        C799   1.413       .  A
C798        F805   1.355       .  S
C799        C800   1.399       .  A
C799        H804   1.070       .  S
C800        C801   1.392       .  A
C801        F802   1.354       .  S
C806        C807   1.390       .  A
C806        C811   1.373       .  A
C806        H813   1.085       .  S
C807        C975   1.512       .  S
C807        C808   1.411       .  A
C808        C809   1.417       .  A
C808        F815   1.352       .  S
C809        C810   1.426       .  A
C809        H814   1.079       .  S
C810        C811   1.426       .  A
C811        F812   1.337       .  S
C816        C817   1.415       .  A
C816        C821   1.420       .  A
C816        H823   1.080       .  S
C817        C977   1.508       .  S
C817        C818   1.395       .  A
C818        C819   1.381       .  A
C818        F825   1.350       .  S
C819        C820   1.412       .  A
C819        H824   1.070       .  S
C820        C821   1.422       .  A
C821        F822   1.356       .  S
C826        C827   1.410       .  A
C826        C831   1.408       .  A
C826        H833   1.078       .  S
C827        C828   1.424       .  A
C828        C829   1.386       .  A
C828        F835   1.339       .  S
C829        C830   1.393       .  A
C829        H834   1.073       .  S
C830       C1884   1.525   1_455  S
C830        C831   1.422       .  A
C831        F832   1.351       .  S
C836        C837   1.412       .  A
C836        C841   1.413       .  A
C836        H843   1.068   1_455  S
C837        C838   1.428       .  A
C838        C839   1.400       .  A
C838        F845   1.351       .  S
C839        C840   1.407       .  A
C839        H844   1.083       .  S
C840        C841   1.420       .  A
C841        F842   1.348       .  S
C846        C847   1.416       .  A
C846        C851   1.413       .  A
C846        H853   1.082       .  S
C847        C848   1.422       .  A
C848        C849   1.395       .  A
C848        F855   1.348       .  S
C849        C850   1.396       .  A
C849        H854   1.081       .  S
C850        C974   1.515       .  S
C850        C851   1.417       .  A
C851        F852   1.354       .  S
C856        C857   1.410       .  A
C856        C861   1.410       .  A
C856        H863   1.080       .  S
C857        C980   1.524       .  S
C857        C858   1.411       .  A
C858        C859   1.398       .  A
C858        F865   1.355       .  S
C859        C860   1.423       .  A
C859        H864   1.076       .  S
C860        C861   1.418       .  A
C861        F862   1.357       .  S
C866        C867   1.406       .  A
C866        C871   1.400       .  A
C866        H873   1.081       .  S
C867        C868   1.414       .  A
C868        C869   1.382       .  A
C868        F875   1.339       .  S
C869        C870   1.397       .  A
C869        H874   1.072       .  S
C870        C871   1.415       .  A
C871        F872   1.335       .  S
C876        C877   1.415       .  A
C876        C881   1.373       .  A
C876        H883   1.064       .  S
C877        C878   1.435       .  A
C878        C879   1.416       .  A
C878        F885   1.350       .  S
C879        C880   1.396       .  A
C879        H884   1.066       .  S
C880        C976   1.511       .  S
C880        C881   1.384       .  A
C881        F882   1.342       .  S
C886        C887   1.402       .  A
C886        C891   1.375       .  A
C886        H893   1.055       .  S
C887        C888   1.428       .  A
C888        C889   1.417       .  A
C888        F895   1.354       .  S
C889        C890   1.407       .  A
C889        H894   1.077       .  S
C890        C979   1.509       .  S
C890        C891   1.389       .  A
C891        F892   1.357       .  S
C896        C897   1.397       .  A
C896        C901   1.376       .  A
C896        H903   1.078       .  S
C897        C898   1.420       .  A
C898        C899   1.419       .  A
C898        F905   1.357       .  S
C899        C900   1.420       .  A
C899        H904   1.081       .  S
C900        C901   1.412       .  A
C901        F902   1.356       .  S
C906        C907   1.403       .  A
C906        C911   1.401       .  A
C906        H913   1.080       .  S
C907        C908   1.434       .  A
C908        C909   1.384       .  A
C908        F915   1.352       .  S
C909        C910   1.389       .  A
C909        H914   1.084       .  S
C910        C911   1.413       .  A
C911        F912   1.340       .  S
N916        N917   1.324       .  A
N916        N922   1.320       .  A
N916       Mn945   2.231       .  S
N917        C924   1.358       .  A
N918        N920   1.319       .  A
N918        N919   1.326       .  A
N918       Mn934   2.249       .  S
N919        C925   1.359       .  A
N920        N921   1.327       .  A
N920       Mn945   2.240       .  S
N921        C925   1.361       .  A
N922        N923   1.323       .  A
N922       Mn934   2.225       .  S
N923        C924   1.357       .  A
C924        C971   1.530       .  S
C925        C964   1.554       .  S
N926        N932   1.315       .  A
N926        N927   1.318       .  A
N926       Mn956   2.211       .  S
N927        C935   1.352       .  A
N928        N929   1.333       .  A
N928        N930   1.318       .  A
N928       Mn934   2.269       .  S
N929        C936   1.365       .  A
N930        N931   1.327       .  A
N930       Mn956   2.244       .  S
N931        C936   1.362       .  A
N932        N933   1.325       .  A
N932       Mn934   2.222       .  S
N933        C935   1.361       .  A
Mn934      Cl958   2.577       .  S
C935        C962   1.540       .  S
C936        C978   1.573       .  S
N937        N938   1.324       .  A
N937        N943   1.316       .  A
N937       Mn945   2.242       .  S
N938        C946   1.360       .  A
N939        N941   1.318       .  A
N939        N940   1.326       .  A
N939       Mn957   2.243       .  S
N940        C947   1.359       .  A
N941        N942   1.328       .  A
N941       Mn945   2.248       .  S
N942        C947   1.363       .  A
N943        N944   1.326       .  A
N943       Mn957   2.220       .  S
N944        C946   1.359       .  A
Mn945      Cl958   2.562       .  S
C946        C963   1.548       .  S
C947        C968   1.559       .  S
N948        N949   1.322       .  A
N948        N954   1.318       .  A
N948       Mn956   2.220       .  S
N949        C959   1.356       .  A
N950        N951   1.327       .  A
N950        N952   1.317       .  A
N950       Mn957   2.228       .  S
N951        C960   1.358       .  A
N952        N953   1.321       .  A
N952       Mn956   2.229       .  S
N953        C960   1.359       .  A
N954        N955   1.323       .  A
N954       Mn957   2.223       .  S
N955        C959   1.358       .  A
Mn956      Cl958   2.558       .  S
Mn957      Cl958   2.580       .  S
C959        C967   1.539       .  S
C960        C961   1.548       .  S
C961       C1192   1.564       .  S
C961       C1202   1.575       .  S
C961       C1212   1.564       .  S
C962       C1165   1.581       .  S
C962       C1172   1.558       .  S
C962       C1182   1.579       .  S
C963       C1132   1.585       .  S
C963       C1145   1.580       .  S
C963       C1152   1.578       .  S
C964       C1102   1.571       .  S
C964       C1115   1.582       .  S
C964       C1125   1.574       .  S
C965       C1175   1.517       .  S
C965       C2186   1.405       .  D
C966       C1105   1.503       .  S
C966       C2185   1.405   1_455  D
C967       C1075   1.571       .  S
C967       C1082   1.570       .  S
C967       C1092   1.564       .  S
C968       C1045   1.567       .  S
C968       C1055   1.583       .  S
C968       C1062   1.568       .  S
C969       C2355   1.525       .  S
C969       C1205   1.527       .  S
C970       C2262   1.512       .  S
C970       C1072   1.523       .  S
C971       C1012   1.553       .  S
C971       C1022   1.568       .  S
C971       C1035   1.566       .  S
C972       C1002   1.518       .  S
C972       C2193   1.399       .  D
C973       C1032   1.558       .  S
C973       C2192   1.399   1_455  D
C974       C1052   1.499       .  S
C975       C1025   1.552       .  S
C976        C995   1.552       .  S
C976       C2197   1.397       .  D
C977       C1015   1.503       .  S
C977       C2196   1.397   1_455  D
C978        C982   1.577       .  S
C978        C992   1.575       .  S
C978       C1005   1.591       .  S
C979       C1085   1.537       .  S
C980        C985   1.503       .  S
C981        C982   1.421       .  A
C981        C986   1.421       .  A
C981        H988   1.075       .  S
C982        C983   1.409       .  A
C983        C984   1.378       .  A
C983        F990   1.331       .  S
C984        C985   1.388       .  A
C984        H989   1.081       .  S
C985        C986   1.412       .  A
C986        F987   1.348       .  S
C991        C992   1.407       .  A
C991        C996   1.417       .  A
C991        H998   1.083       .  S
C992        C993   1.410       .  A
C993        C994   1.401       .  A
C993       F1000   1.358       .  S
C994        C995   1.424       .  A
C994        H999   1.082       .  S
C995        C996   1.421       .  A
C996        F997   1.350       .  S
C1001      C1002   1.384       .  A
C1001      C1006   1.390       .  A
C1001      H1008   1.084       .  S
C1002      C1003   1.411       .  A
C1003      C1004   1.415       .  A
C1003      F1010   1.349       .  S
C1004      C1005   1.416       .  A
C1004      H1009   1.082       .  S
C1005      C1006   1.443       .  A
C1006      F1007   1.340       .  S
C1011      C1012   1.417       .  A
C1011      C1016   1.400       .  A
C1011      H1018   1.083       .  S
C1012      C1013   1.413       .  A
C1013      C1014   1.399       .  A
C1013      F1020   1.355       .  S
C1014      C1015   1.403       .  A
C1014      H1019   1.067       .  S
C1015      C1016   1.404       .  A
C1016      F1017   1.353       .  S
C1021      C1022   1.406       .  A
C1021      C1026   1.391       .  A
C1021      H1028   1.068       .  S
C1022      C1023   1.421       .  A
C1023      C1024   1.412       .  A
C1023      F1030   1.354       .  S
C1024      C1025   1.421       .  A
C1024      H1029   1.081       .  S
C1025      C1026   1.398       .  A
C1026      F1027   1.347       .  S
C1031      C1032   1.411       .  A
C1031      C1036   1.409       .  A
C1031      H1038   1.079       .  S
C1032      C1033   1.430       .  A
C1033      C1034   1.401       .  A
C1033      F1040   1.355       .  S
C1034      C1035   1.405       .  A
C1034      H1039   1.083       .  S
C1035      C1036   1.416       .  A
C1036      F1037   1.357       .  S
C1041      C1042   1.398       .  A
C1041      C1046   1.414       .  A
C1041      H1048   1.069       .  S
C1042      C2190   1.512   1_455  S
C1042      C1043   1.399       .  A
C1043      C1044   1.377       .  A
C1043      F1050   1.348   1_455  S
C1044      C1045   1.415       .  A
C1044      H1049   1.074       .  S
C1045      C1046   1.422       .  A
C1046      F1047   1.357       .  S
C1051      C1052   1.390       .  A
C1051      C1056   1.414       .  A
C1051      H1058   1.067       .  S
C1052      C1053   1.394       .  A
C1053      C1054   1.389       .  A
C1053      F1060   1.357       .  S
C1054      C1055   1.429       .  A
C1054      H1059   1.069       .  S
C1055      C1056   1.421       .  A
C1056      F1057   1.349       .  S
C1061      C1062   1.418       .  A
C1061      C1066   1.410       .  A
C1061      H1068   1.082       .  S
C1062      C1063   1.418       .  A
C1063      C1064   1.372       .  A
C1063      F1070   1.329       .  S
C1064      C1065   1.382       .  A
C1064      H1069   1.085       .  S
C1065      C1066   1.410       .  A
C1066      F1067   1.343       .  S
C1071      C1072   1.388       .  A
C1071      C1076   1.389       .  A
C1071      H1078   1.067       .  S
C1072      C1073   1.422       .  A
C1073      C1074   1.401       .  A
C1073      F1080   1.352       .  S
C1074      C1075   1.413       .  A
C1074      H1079   1.080       .  S
C1075      C1076   1.413       .  A
C1076      F1077   1.336       .  S
C1081      C1082   1.411       .  A
C1081      C1086   1.391       .  A
C1081      H1088   1.079       .  S
C1082      C1083   1.397       .  A
C1083      C1084   1.404       .  A
C1083      F1090   1.358       .  S
C1084      C1085   1.424       .  A
C1084      H1089   1.082       .  S
C1085      C1086   1.416       .  A
C1086      F1087   1.347   1_565  S
C1091      C1092   1.411       .  A
C1091      C1096   1.411       .  A
C1091      H1098   1.081       .  S
C1092      C1093   1.424       .  A
C1093      C1094   1.388       .  A
C1093      F1100   1.354       .  S
C1094      C1095   1.391       .  A
C1094      H1099   1.084       .  S
C1095      C1096   1.408       .  A
C1096      F1097   1.351       .  S
C1101      C1102   1.423       .  A
C1101      C1106   1.382       .  A
C1101      H1108   1.073       .  S
C1102      C1103   1.425       .  A
C1103      C1104   1.413       .  A
C1103      F1110   1.355       .  S
C1104      C1105   1.399       .  A
C1104      H1109   1.070       .  S
C1105      C1106   1.392       .  A
C1106      F1107   1.354       .  S
C1111      C1112   1.390       .  A
C1111      C1116   1.373       .  A
C1111      H1118   1.085   1_556  S
C1112      C1113   1.411       .  A
C1113      C1114   1.417       .  A
C1113      F1120   1.352       .  S
C1114      C1115   1.426       .  A
C1114      H1119   1.079       .  S
C1115      C1116   1.426       .  A
C1116      F1117   1.337       .  S
C1121      C1122   1.415       .  A
C1121      C1126   1.420       .  A
C1121      H1128   1.080       .  S
C1122      C1123   1.395       .  A
C1123      C1124   1.381       .  A
C1123      F1130   1.350       .  S
C1124      C1125   1.412       .  A
C1124      H1129   1.070       .  S
C1125      C1126   1.422       .  A
C1126      F1127   1.356       .  S
C1131      C1132   1.410       .  A
C1131      C1136   1.408       .  A
C1131      H1138   1.078       .  S
C1132      C1133   1.424       .  A
C1133      C1134   1.386       .  A
C1133      F1140   1.339       .  S
C1134      C1135   1.393       .  A
C1134      H1139   1.073       .  S
C1135      C2189   1.525   1_455  S
C1135      C1136   1.422       .  A
C1136      F1137   1.351       .  S
C1141      C1142   1.412       .  A
C1141      C1146   1.413       .  A
C1141      H1148   1.068   1_455  S
C1142      C1143   1.428       .  A
C1143      C1144   1.400       .  A
C1143      F1150   1.351       .  S
C1144      C1145   1.407       .  A
C1144      H1149   1.083       .  S
C1145      C1146   1.420       .  A
C1146      F1147   1.348       .  S
C1151      C1152   1.416       .  A
C1151      C1156   1.413       .  A
C1151      H1158   1.082       .  S
C1152      C1153   1.422       .  A
C1153      C1154   1.395       .  A
C1153      F1160   1.348       .  S
C1154      C1155   1.396       .  A
C1154      H1159   1.081       .  S
C1155      C1156   1.417       .  A
C1156      F1157   1.354       .  S
C1161      C1162   1.410       .  A
C1161      C1166   1.410       .  A
C1161      H1168   1.080       .  S
C1162      C1163   1.411       .  A
C1163      C1164   1.398       .  A
C1163      F1170   1.355       .  S
C1164      C1165   1.423       .  A
C1164      H1169   1.076       .  S
C1165      C1166   1.418       .  A
C1166      F1167   1.357       .  S
C1171      C1172   1.406       .  A
C1171      C1176   1.400       .  A
C1171      H1178   1.081       .  S
C1172      C1173   1.414       .  A
C1173      C1174   1.382       .  A
C1173      F1180   1.339       .  S
C1174      C1175   1.397       .  A
C1174      H1179   1.072       .  S
C1175      C1176   1.415       .  A
C1176      F1177   1.335       .  S
C1181      C1182   1.415       .  A
C1181      C1186   1.373       .  A
C1181      H1188   1.064       .  S
C1182      C1183   1.435       .  A
C1183      C1184   1.416       .  A
C1183      F1190   1.350       .  S
C1184      C1185   1.396       .  A
C1184      H1189   1.066       .  S
C1185      C1186   1.384       .  A
C1186      F1187   1.342       .  S
C1191      C1192   1.402       .  A
C1191      C1196   1.375       .  A
C1191      H1198   1.055       .  S
C1192      C1193   1.428       .  A
C1193      C1194   1.417       .  A
C1193      F1200   1.354       .  S
C1194      C1195   1.407       .  A
C1194      H1199   1.077       .  S
C1195      C1196   1.389       .  A
C1196      F1197   1.357   1_556  S
C1201      C1202   1.397       .  A
C1201      C1206   1.376       .  A
C1201      H1208   1.078       .  S
C1202      C1203   1.420       .  A
C1203      C1204   1.419       .  A
C1203      F1210   1.357       .  S
C1204      C1205   1.420       .  A
C1204      H1209   1.081       .  S
C1205      C1206   1.412       .  A
C1206      F1207   1.356       .  S
C1211      C1212   1.403       .  A
C1211      C1216   1.401       .  A
C1211      H1218   1.080       .  S
C1212      C1213   1.434       .  A
C1213      C1214   1.384       .  A
C1213      F1220   1.352       .  S
C1214      C1215   1.389       .  A
C1214      H1219   1.084       .  S
C1215      C1216   1.413       .  A
C1216      F1217   1.340       .  S
N1221      N1222   1.324       .  A
N1221      N1227   1.320       .  A
N1221     Mn1250   2.231       .  S
N1222      C1229   1.358       .  A
N1223      N1225   1.319       .  A
N1223      N1224   1.326       .  A
N1223     Mn1239   2.249       .  S
N1224      C1230   1.359       .  A
N1225      N1226   1.327       .  A
N1225     Mn1250   2.240       .  S
N1226      C1230   1.361       .  A
N1227      N1228   1.323       .  A
N1227     Mn1239   2.225       .  S
N1228      C1229   1.357       .  A
C1229      C1276   1.530       .  S
C1230      C1269   1.554       .  S
N1231      N1237   1.315       .  A
N1231      N1232   1.318       .  A
N1231     Mn1261   2.211       .  S
N1232      C1240   1.352       .  A
N1233      N1234   1.333       .  A
N1233      N1235   1.318       .  A
N1233     Mn1239   2.269       .  S
N1234      C1241   1.365       .  A
N1235      N1236   1.327       .  A
N1235     Mn1261   2.244       .  S
N1236      C1241   1.362       .  A
N1237      N1238   1.325       .  A
N1237     Mn1239   2.222       .  S
N1238      C1240   1.361       .  A
Mn1239    Cl1263   2.577       .  S
C1240      C1267   1.540       .  S
C1241      C1283   1.573       .  S
N1242      N1243   1.324       .  A
N1242      N1248   1.316       .  A
N1242     Mn1250   2.242       .  S
N1243      C1251   1.360       .  A
N1244      N1246   1.318       .  A
N1244      N1245   1.326       .  A
N1244     Mn1262   2.243       .  S
N1245      C1252   1.359       .  A
N1246      N1247   1.328       .  A
N1246     Mn1250   2.248       .  S
N1247      C1252   1.363       .  A
N1248      N1249   1.326       .  A
N1248     Mn1262   2.220       .  S
N1249      C1251   1.359       .  A
Mn1250    Cl1263   2.562       .  S
C1251      C1268   1.548       .  S
C1252      C1273   1.559       .  S
N1253      N1254   1.322       .  A
N1253      N1259   1.318       .  A
N1253     Mn1261   2.220       .  S
N1254      C1264   1.356       .  A
N1255      N1256   1.327       .  A
N1255      N1257   1.317       .  A
N1255     Mn1262   2.228       .  S
N1256      C1265   1.358       .  A
N1257      N1258   1.321       .  A
N1257     Mn1261   2.229       .  S
N1258      C1265   1.359       .  A
N1259      N1260   1.323       .  A
N1259     Mn1262   2.223       .  S
N1260      C1264   1.358       .  A
Mn1261    Cl1263   2.558       .  S
Mn1262    Cl1263   2.580       .  S
C1264      C1272   1.539       .  S
C1265      C1266   1.548       .  S
C1266      C1497   1.564       .  S
C1266      C1507   1.575       .  S
C1266      C1517   1.564       .  S
C1267      C1470   1.581       .  S
C1267      C1477   1.558       .  S
C1267      C1487   1.579       .  S
C1268      C1437   1.585       .  S
C1268      C1450   1.580       .  S
C1268      C1457   1.578       .  S
C1269      C1407   1.571       .  S
C1269      C1420   1.582       .  S
C1269      C1430   1.574       .  S
C1270      C1480   1.517       .  S
C1270      C2130   1.493   1_545  S
C1271      C1410   1.503   1_565  S
C1271      C2057   1.550       .  S
C1272      C1380   1.571       .  S
C1272      C1387   1.570       .  S
C1272      C1397   1.564       .  S
C1273      C1350   1.567       .  S
C1273      C1360   1.583       .  S
C1273      C1367   1.568       .  S
C1274      C1510   1.527       .  S
C1274      C1580   1.406       .  D
C1275      C1377   1.523       .  S
C1275      C1579   1.406   1_554  D
C1276      C1317   1.553       .  S
C1276      C1327   1.568       .  S
C1276      C1340   1.566       .  S
C1277      C1307   1.518   1_565  S
C1277      C2010   1.503       .  S
C1278      C1337   1.558   1_565  S
C1278      C1980   1.498       .  S
C1279      C1357   1.499   1_556  S
C1279      C1765   1.515       .  S
C1279      C1890   1.398   1_556  D
C1280      C1330   1.552       .  S
C1280      C1722   1.512   1_554  S
C1280      C1889   1.398   1_544  D
C1281      C1300   1.552       .  S
C1281      C1795   1.511   1_554  S
C1282      C1320   1.503       .  S
C1282      C1732   1.508   1_554  S
C1283      C1287   1.577       .  S
C1283      C1297   1.575       .  S
C1283      C1310   1.591       .  S
C1284      C1390   1.537       .  S
C1284      C1805   1.509   1_554  S
C1284      C1895   1.390       .  D
C1285      C1290   1.503       .  S
C1285      C1772   1.525   1_554  S
C1285      C1894   1.390   1_545  D
C1286      C1287   1.421       .  A
C1286      C1291   1.421       .  A
C1286      H1293   1.075       .  S
C1287      C1288   1.409       .  A
C1288      C1289   1.378       .  A
C1288      F1295   1.331       .  S
C1289      C1290   1.388       .  A
C1289      H1294   1.081       .  S
C1290      C1291   1.412       .  A
C1291      F1292   1.348       .  S
C1296      C1297   1.407       .  A
C1296      C1301   1.417       .  A
C1296      H1303   1.083       .  S
C1297      C1298   1.410       .  A
C1298      C1299   1.401       .  A
C1298      F1305   1.358       .  S
C1299      C1300   1.424       .  A
C1299      H1304   1.082       .  S
C1300      C1301   1.421       .  A
C1301      F1302   1.350   1_655  S
C1306      C1307   1.384       .  A
C1306      C1311   1.390       .  A
C1306      H1313   1.084   1_655  S
C1307      C1308   1.411       .  A
C1308      C1309   1.415       .  A
C1308      F1315   1.349       .  S
C1309      C1310   1.416       .  A
C1309      H1314   1.082       .  S
C1310      C1311   1.443       .  A
C1311      F1312   1.340       .  S
C1316      C1317   1.417       .  A
C1316      C1321   1.400       .  A
C1316      H1323   1.083       .  S
C1317      C1318   1.413       .  A
C1318      C1319   1.399       .  A
C1318      F1325   1.355       .  S
C1319      C1320   1.403       .  A
C1319      H1324   1.067       .  S
C1320      C1321   1.404       .  A
C1321      F1322   1.353       .  S
C1326      C1327   1.406       .  A
C1326      C1331   1.391       .  A
C1326      H1333   1.068       .  S
C1327      C1328   1.421       .  A
C1328      C1329   1.412       .  A
C1328      F1335   1.354       .  S
C1329      C1330   1.421       .  A
C1329      H1334   1.081       .  S
C1330      C1331   1.398       .  A
C1331      F1332   1.347   1_545  S
C1336      C1337   1.411       .  A
C1336      C1341   1.409       .  A
C1336      H1343   1.079       .  S
C1337      C1338   1.430       .  A
C1338      C1339   1.401       .  A
C1338      F1345   1.355       .  S
C1339      C1340   1.405       .  A
C1339      H1344   1.083       .  S
C1340      C1341   1.416       .  A
C1341      F1342   1.357       .  S
C1346      C1347   1.398       .  A
C1346      C1351   1.414       .  A
C1346      H1353   1.069       .  S
C1347      C1348   1.399       .  A
C1348      C1349   1.377       .  A
C1348      F1355   1.348       .  S
C1349      C1350   1.415       .  A
C1349      H1354   1.074       .  S
C1350      C1351   1.422       .  A
C1351      F1352   1.357       .  S
C1356      C1357   1.390       .  A
C1356      C1361   1.414       .  A
C1356      H1363   1.067       .  S
C1357      C1358   1.394       .  A
C1358      C1359   1.389       .  A
C1358      F1365   1.357       .  S
C1359      C1360   1.429       .  A
C1359      H1364   1.069       .  S
C1360      C1361   1.421       .  A
C1361      F1362   1.349       .  S
C1366      C1367   1.418       .  A
C1366      C1371   1.410       .  A
C1366      H1373   1.082       .  S
C1367      C1368   1.418       .  A
C1368      C1369   1.372       .  A
C1368      F1375   1.329       .  S
C1369      C1370   1.382       .  A
C1369      H1374   1.085       .  S
C1370      C1888   1.498       .  S
C1370      C1371   1.410       .  A
C1371      F1372   1.343       .  S
C1376      C1377   1.388       .  A
C1376      C1381   1.389       .  A
C1376      H1383   1.067       .  S
C1377      C1378   1.422       .  A
C1378      C1379   1.401       .  A
C1378      F1385   1.352       .  S
C1379      C1380   1.413       .  A
C1379      H1384   1.080       .  S
C1380      C1381   1.413       .  A
C1381      F1382   1.336       .  S
C1386      C1387   1.411       .  A
C1386      C1391   1.391       .  A
C1386      H1393   1.079       .  S
C1387      C1388   1.397       .  A
C1388      C1389   1.404       .  A
C1388      F1395   1.358       .  S
C1389      C1390   1.424       .  A
C1389      H1394   1.082       .  S
C1390      C1391   1.416       .  A
C1391      F1392   1.347       .  S
C1396      C1397   1.411       .  A
C1396      C1401   1.411       .  A
C1396      H1403   1.081       .  S
C1397      C1398   1.424       .  A
C1398      C1399   1.388       .  A
C1398      F1405   1.354       .  S
C1399      C1400   1.391       .  A
C1399      H1404   1.084       .  S
C1400      C1887   1.503       .  S
C1400      C1401   1.407       .  A
C1401      F1402   1.351       .  S
C1406      C1407   1.423       .  A
C1406      C1411   1.382       .  A
C1406      H1413   1.073       .  S
C1407      C1408   1.425       .  A
C1408      C1409   1.413       .  A
C1408      F1415   1.355       .  S
C1409      C1410   1.399       .  A
C1409      H1414   1.070       .  S
C1410      C1411   1.392       .  A
C1411      F1412   1.354       .  S
C1416      C1417   1.390       .  A
C1416      C1421   1.373       .  A
C1416      H1423   1.085       .  S
C1417      C1585   1.512       .  S
C1417      C1418   1.411       .  A
C1418      C1419   1.417       .  A
C1418      F1425   1.352       .  S
C1419      C1420   1.426       .  A
C1419      H1424   1.079       .  S
C1420      C1421   1.426       .  A
C1421      F1422   1.337       .  S
C1426      C1427   1.415       .  A
C1426      C1431   1.420       .  A
C1426      H1433   1.080       .  S
C1427      C1587   1.508       .  S
C1427      C1428   1.395       .  A
C1428      C1429   1.381       .  A
C1428      F1435   1.350       .  S
C1429      C1430   1.412       .  A
C1429      H1434   1.070       .  S
C1430      C1431   1.422       .  A
C1431      F1432   1.356       .  S
C1436      C1437   1.410       .  A
C1436      C1441   1.408       .  A
C1436      H1443   1.078       .  S
C1437      C1438   1.424       .  A
C1438      C1439   1.386       .  A
C1438      F1445   1.339       .  S
C1439      C1440   1.393       .  A
C1439      H1444   1.073       .  S
C1440      C1441   1.422       .  A
C1441      F1442   1.351       .  S
C1446      C1447   1.412       .  A
C1446      C1451   1.413       .  A
C1446      H1453   1.068       .  S
C1447      C1881   1.550       .  S
C1447      C1448   1.428       .  A
C1448      C1449   1.400       .  A
C1448      F1455   1.351       .  S
C1449      C1450   1.407       .  A
C1449      H1454   1.083       .  S
C1450      C1451   1.420       .  A
C1451      F1452   1.348       .  S
C1456      C1457   1.416       .  A
C1456      C1461   1.413       .  A
C1456      H1463   1.082       .  S
C1457      C1458   1.422       .  A
C1458      C1459   1.395       .  A
C1458      F1465   1.348       .  S
C1459      C1460   1.396       .  A
C1459      H1464   1.081       .  S
C1460      C1584   1.515       .  S
C1460      C1461   1.417       .  A
C1461      F1462   1.354       .  S
C1466      C1467   1.410       .  A
C1466      C1471   1.410       .  A
C1466      H1473   1.080       .  S
C1467      C1590   1.524       .  S
C1467      C1468   1.411       .  A
C1468      C1469   1.398       .  A
C1468      F1475   1.355       .  S
C1469      C1470   1.423       .  A
C1469      H1474   1.076       .  S
C1470      C1471   1.418       .  A
C1471      F1472   1.357       .  S
C1476      C1477   1.406       .  A
C1476      C1481   1.400       .  A
C1476      H1483   1.081       .  S
C1477      C1478   1.414       .  A
C1478      C1479   1.382       .  A
C1478      F1485   1.339       .  S
C1479      C1480   1.397       .  A
C1479      H1484   1.072       .  S
C1480      C1481   1.415       .  A
C1481      F1482   1.335       .  S
C1486      C1487   1.415       .  A
C1486      C1491   1.373       .  A
C1486      H1493   1.064       .  S
C1487      C1488   1.435       .  A
C1488      C1489   1.416       .  A
C1488      F1495   1.350       .  S
C1489      C1490   1.396       .  A
C1489      H1494   1.066       .  S
C1490      C1586   1.511       .  S
C1490      C1491   1.384       .  A
C1491      F1492   1.342       .  S
C1496      C1497   1.402       .  A
C1496      C1501   1.375       .  A
C1496      H1503   1.055       .  S
C1497      C1498   1.428       .  A
C1498      C1499   1.417       .  A
C1498      F1505   1.354       .  S
C1499      C1500   1.407       .  A
C1499      H1504   1.077       .  S
C1500      C1589   1.509       .  S
C1500      C1501   1.389       .  A
C1501      F1502   1.357       .  S
C1506      C1507   1.397       .  A
C1506      C1511   1.376       .  A
C1506      H1513   1.078       .  S
C1507      C1508   1.420       .  A
C1508      C1509   1.419       .  A
C1508      F1515   1.357       .  S
C1509      C1510   1.420       .  A
C1509      H1514   1.081       .  S
C1510      C1511   1.412       .  A
C1511      F1512   1.356   1_655  S
C1516      C1517   1.403       .  A
C1516      C1521   1.401       .  A
C1516      H1523   1.080       .  S
C1517      C1518   1.434       .  A
C1518      C1519   1.384       .  A
C1518      F1525   1.352       .  S
C1519      C1520   1.389       .  A
C1519      H1524   1.084       .  S
C1520      C1880   1.493       .  S
C1520      C1521   1.413       .  A
C1521      F1522   1.340       .  S
N1526      N1527   1.324       .  A
N1526      N1532   1.320       .  A
N1526     Mn1555   2.231       .  S
N1527      C1534   1.358       .  A
N1528      N1530   1.319       .  A
N1528      N1529   1.326       .  A
N1528     Mn1544   2.249       .  S
N1529      C1535   1.359       .  A
N1530      N1531   1.327       .  A
N1530     Mn1555   2.240       .  S
N1531      C1535   1.361       .  A
N1532      N1533   1.323       .  A
N1532     Mn1544   2.225       .  S
N1533      C1534   1.357       .  A
C1534      C1581   1.530       .  S
C1535      C1574   1.554       .  S
N1536      N1542   1.315       .  A
N1536      N1537   1.318       .  A
N1536     Mn1566   2.211       .  S
N1537      C1545   1.352       .  A
N1538      N1539   1.333       .  A
N1538      N1540   1.318       .  A
N1538     Mn1544   2.269       .  S
N1539      C1546   1.365       .  A
N1540      N1541   1.327       .  A
N1540     Mn1566   2.244       .  S
N1541      C1546   1.362       .  A
N1542      N1543   1.325       .  A
N1542     Mn1544   2.222       .  S
N1543      C1545   1.361       .  A
Mn1544    Cl1568   2.577       .  S
C1545      C1572   1.540       .  S
C1546      C1588   1.573       .  S
N1547      N1548   1.324       .  A
N1547      N1553   1.316       .  A
N1547     Mn1555   2.242       .  S
N1548      C1556   1.360       .  A
N1549      N1551   1.318       .  A
N1549      N1550   1.326       .  A
N1549     Mn1567   2.243       .  S
N1550      C1557   1.359       .  A
N1551      N1552   1.328       .  A
N1551     Mn1555   2.248       .  S
N1552      C1557   1.363       .  A
N1553      N1554   1.326       .  A
N1553     Mn1567   2.220       .  S
N1554      C1556   1.359       .  A
Mn1555    Cl1568   2.562       .  S
C1556      C1573   1.548       .  S
C1557      C1578   1.559       .  S
N1558      N1559   1.322       .  A
N1558      N1564   1.318       .  A
N1558     Mn1566   2.220       .  S
N1559      C1569   1.356       .  A
N1560      N1561   1.327       .  A
N1560      N1562   1.317       .  A
N1560     Mn1567   2.228       .  S
N1561      C1570   1.358       .  A
N1562      N1563   1.321       .  A
N1562     Mn1566   2.229       .  S
N1563      C1570   1.359       .  A
N1564      N1565   1.323       .  A
N1564     Mn1567   2.223       .  S
N1565      C1569   1.358       .  A
Mn1566    Cl1568   2.558       .  S
Mn1567    Cl1568   2.580       .  S
C1569      C1577   1.539       .  S
C1570      C1571   1.548       .  S
C1571      C1802   1.564       .  S
C1571      C1812   1.575       .  S
C1571      C1822   1.564       .  S
C1572      C1775   1.581       .  S
C1572      C1782   1.558       .  S
C1572      C1792   1.579       .  S
C1573      C1742   1.585       .  S
C1573      C1755   1.580       .  S
C1573      C1762   1.578       .  S
C1574      C1712   1.571       .  S
C1574      C1725   1.582       .  S
C1574      C1735   1.574       .  S
C1575      C1785   1.517       .  S
C1575      C2435   1.493   1_545  S
C1576      C1715   1.503   1_565  S
C1576      C2362   1.550       .  S
C1577      C1685   1.571       .  S
C1577      C1692   1.570       .  S
C1577      C1702   1.564       .  S
C1578      C1655   1.567       .  S
C1578      C1665   1.583       .  S
C1578      C1672   1.568       .  S
C1579      C1815   1.527       .  S
C1580      C1682   1.523       .  S
C1581      C1622   1.553       .  S
C1581      C1632   1.568       .  S
C1581      C1645   1.566       .  S
C1582      C1612   1.518   1_565  S
C1582      C2315   1.503       .  S
C1583      C1642   1.558   1_565  S
C1583      C2285   1.498       .  S
C1584      C1662   1.499       .  S
C1584      C2195   1.398       .  D
C1585      C1635   1.552       .  S
C1585      C2194   1.398   1_545  D
C1586      C1605   1.552       .  S
C1587      C1625   1.503       .  S
C1588      C1592   1.577       .  S
C1588      C1602   1.575       .  S
C1588      C1615   1.591       .  S
C1589      C1695   1.537       .  S
C1589      C2200   1.390       .  D
C1590      C1595   1.503       .  S
C1590      C2199   1.390   1_545  D
C1591      C1592   1.421       .  A
C1591      C1596   1.421       .  A
C1591      H1598   1.075       .  S
C1592      C1593   1.409       .  A
C1593      C1594   1.378       .  A
C1593      F1600   1.331       .  S
C1594      C1595   1.388       .  A
C1594      H1599   1.081       .  S
C1595      C1596   1.412       .  A
C1596      F1597   1.348       .  S
C1601      C1602   1.407       .  A
C1601      C1606   1.417       .  A
C1601      H1608   1.083       .  S
C1602      C1603   1.410       .  A
C1603      C1604   1.401       .  A
C1603      F1610   1.358       .  S
C1604      C1605   1.424       .  A
C1604      H1609   1.082       .  S
C1605      C1606   1.421       .  A
C1606      F1607   1.350   1_655  S
C1611      C1612   1.384       .  A
C1611      C1616   1.390       .  A
C1611      H1618   1.084   1_655  S
C1612      C1613   1.411       .  A
C1613      C1614   1.415       .  A
C1613      F1620   1.349       .  S
C1614      C1615   1.416       .  A
C1614      H1619   1.082       .  S
C1615      C1616   1.443       .  A
C1616      F1617   1.340       .  S
C1621      C1622   1.417       .  A
C1621      C1626   1.400       .  A
C1621      H1628   1.083       .  S
C1622      C1623   1.413       .  A
C1623      C1624   1.399       .  A
C1623      F1630   1.355       .  S
C1624      C1625   1.403       .  A
C1624      H1629   1.067       .  S
C1625      C1626   1.404       .  A
C1626      F1627   1.353       .  S
C1631      C1632   1.406       .  A
C1631      C1636   1.391       .  A
C1631      H1638   1.068       .  S
C1632      C1633   1.421       .  A
C1633      C1634   1.412       .  A
C1633      F1640   1.354       .  S
C1634      C1635   1.421       .  A
C1634      H1639   1.081       .  S
C1635      C1636   1.398       .  A
C1636      F1637   1.347   1_545  S
C1641      C1642   1.411       .  A
C1641      C1646   1.409       .  A
C1641      H1648   1.079       .  S
C1642      C1643   1.430       .  A
C1643      C1644   1.401       .  A
C1643      F1650   1.355       .  S
C1644      C1645   1.405       .  A
C1644      H1649   1.083       .  S
C1645      C1646   1.416       .  A
C1646      F1647   1.357       .  S
C1651      C1652   1.398       .  A
C1651      C1656   1.414       .  A
C1651      H1658   1.069       .  S
C1652      C1653   1.399       .  A
C1653      C1654   1.377       .  A
C1653      F1660   1.348       .  S
C1654      C1655   1.415       .  A
C1654      H1659   1.074       .  S
C1655      C1656   1.422       .  A
C1656      F1657   1.357       .  S
C1661      C1662   1.390       .  A
C1661      C1666   1.414       .  A
C1661      H1668   1.066       .  S
C1662      C1663   1.394       .  A
C1663      C1664   1.389       .  A
C1663      F1670   1.357       .  S
C1664      C1665   1.429       .  A
C1664      H1669   1.069       .  S
C1665      C1666   1.421       .  A
C1666      F1667   1.349       .  S
C1671      C1672   1.418       .  A
C1671      C1676   1.410       .  A
C1671      H1678   1.082       .  S
C1672      C1673   1.418       .  A
C1673      C1674   1.372       .  A
C1673      F1680   1.329       .  S
C1674      C1675   1.382       .  A
C1674      H1679   1.085       .  S
C1675      C2193   1.498       .  S
C1675      C1676   1.410       .  A
C1676      F1677   1.343       .  S
C1681      C1682   1.388       .  A
C1681      C1686   1.389       .  A
C1681      H1688   1.067       .  S
C1682      C1683   1.422       .  A
C1683      C1684   1.401       .  A
C1683      F1690   1.352       .  S
C1684      C1685   1.413       .  A
C1684      H1689   1.080       .  S
C1685      C1686   1.413       .  A
C1686      F1687   1.336       .  S
C1691      C1692   1.411       .  A
C1691      C1696   1.391       .  A
C1691      H1698   1.079       .  S
C1692      C1693   1.397       .  A
C1693      C1694   1.404       .  A
C1693      F1700   1.358       .  S
C1694      C1695   1.424       .  A
C1694      H1699   1.082       .  S
C1695      C1696   1.416       .  A
C1696      F1697   1.347       .  S
C1701      C1702   1.411       .  A
C1701      C1706   1.411       .  A
C1701      H1708   1.081       .  S
C1702      C1703   1.424       .  A
C1703      C1704   1.388       .  A
C1703      F1710   1.354       .  S
C1704      C1705   1.391       .  A
C1704      H1709   1.084       .  S
C1705      C2192   1.503       .  S
C1705      C1706   1.408       .  A
C1706      F1707   1.351       .  S
C1711      C1712   1.423       .  A
C1711      C1716   1.382       .  A
C1711      H1718   1.073       .  S
C1712      C1713   1.425       .  A
C1713      C1714   1.413       .  A
C1713      F1720   1.355       .  S
C1714      C1715   1.399       .  A
C1714      H1719   1.070       .  S
C1715      C1716   1.392       .  A
C1716      F1717   1.354       .  S
C1721      C1722   1.390       .  A
C1721      C1726   1.373       .  A
C1721      H1728   1.085   1_556  S
C1722      C1723   1.411       .  A
C1723      C1724   1.417       .  A
C1723      F1730   1.352       .  S
C1724      C1725   1.426       .  A
C1724      H1729   1.079       .  S
C1725      C1726   1.426       .  A
C1726      F1727   1.337       .  S
C1731      C1732   1.415       .  A
C1731      C1736   1.420       .  A
C1731      H1738   1.080       .  S
C1732      C1733   1.395       .  A
C1733      C1734   1.381       .  A
C1733      F1740   1.350       .  S
C1734      C1735   1.412       .  A
C1734      H1739   1.070       .  S
C1735      C1736   1.422       .  A
C1736      F1737   1.356       .  S
C1741      C1742   1.410       .  A
C1741      C1746   1.408       .  A
C1741      H1748   1.078       .  S
C1742      C1743   1.424       .  A
C1743      C1744   1.386       .  A
C1743      F1750   1.339       .  S
C1744      C1745   1.393       .  A
C1744      H1749   1.073       .  S
C1745      C1746   1.422       .  A
C1746      F1747   1.351       .  S
C1751      C1752   1.412       .  A
C1751      C1756   1.413       .  A
C1751      H1758   1.068       .  S
C1752      C2186   1.550       .  S
C1752      C1753   1.428       .  A
C1753      C1754   1.400       .  A
C1753      F1760   1.351       .  S
C1754      C1755   1.407       .  A
C1754      H1759   1.083       .  S
C1755      C1756   1.420       .  A
C1756      F1757   1.348       .  S
C1761      C1762   1.416       .  A
C1761      C1766   1.413       .  A
C1761      H1768   1.082       .  S
C1762      C1763   1.422       .  A
C1763      C1764   1.395       .  A
C1763      F1770   1.348       .  S
C1764      C1765   1.396       .  A
C1764      H1769   1.081       .  S
C1765      C1766   1.417       .  A
C1766      F1767   1.354       .  S
C1771      C1772   1.410       .  A
C1771      C1776   1.410       .  A
C1771      H1778   1.080       .  S
C1772      C1773   1.411       .  A
C1773      C1774   1.398       .  A
C1773      F1780   1.355       .  S
C1774      C1775   1.423       .  A
C1774      H1779   1.076       .  S
C1775      C1776   1.418       .  A
C1776      F1777   1.357       .  S
C1781      C1782   1.406       .  A
C1781      C1786   1.400       .  A
C1781      H1788   1.081       .  S
C1782      C1783   1.414       .  A
C1783      C1784   1.382       .  A
C1783      F1790   1.339       .  S
C1784      C1785   1.397       .  A
C1784      H1789   1.072       .  S
C1785      C1786   1.415       .  A
C1786      F1787   1.335       .  S
C1791      C1792   1.415       .  A
C1791      C1796   1.373       .  A
C1791      H1798   1.064       .  S
C1792      C1793   1.435       .  A
C1793      C1794   1.416       .  A
C1793      F1800   1.350       .  S
C1794      C1795   1.396       .  A
C1794      H1799   1.066       .  S
C1795      C1796   1.384       .  A
C1796      F1797   1.342       .  S
C1801      C1802   1.402       .  A
C1801      C1806   1.375       .  A
C1801      H1808   1.055       .  S
C1802      C1803   1.428       .  A
C1803      C1804   1.417       .  A
C1803      F1810   1.354       .  S
C1804      C1805   1.407       .  A
C1804      H1809   1.077       .  S
C1805      C1806   1.389       .  A
C1806      F1807   1.357   1_556  S
C1811      C1812   1.397       .  A
C1811      C1816   1.376       .  A
C1811      H1818   1.078       .  S
C1812      C1813   1.420       .  A
C1813      C1814   1.419       .  A
C1813      F1820   1.357       .  S
C1814      C1815   1.420       .  A
C1814      H1819   1.081       .  S
C1815      C1816   1.412       .  A
C1816      F1817   1.356   1_655  S
C1821      C1822   1.403       .  A
C1821      C1826   1.401       .  A
C1821      H1828   1.080       .  S
C1822      C1823   1.434       .  A
C1823      C1824   1.384       .  A
C1823      F1830   1.352       .  S
C1824      C1825   1.389       .  A
C1824      H1829   1.084       .  S
C1825      C2185   1.493       .  S
C1825      C1826   1.413       .  A
C1826      F1827   1.340       .  S
N1831      N1832   1.324       .  A
N1831      N1837   1.320       .  A
N1831     Mn1860   2.231       .  S
N1832      C1839   1.358       .  A
N1833      N1835   1.319       .  A
N1833      N1834   1.326       .  A
N1833     Mn1849   2.249       .  S
N1834      C1840   1.359       .  A
N1835      N1836   1.327       .  A
N1835     Mn1860   2.240       .  S
N1836      C1840   1.361       .  A
N1837      N1838   1.323       .  A
N1837     Mn1849   2.225       .  S
N1838      C1839   1.357       .  A
C1839      C1886   1.530       .  S
C1840      C1879   1.554       .  S
N1841      N1847   1.315       .  A
N1841      N1842   1.318       .  A
N1841     Mn1871   2.211       .  S
N1842      C1850   1.352       .  A
N1843      N1844   1.333       .  A
N1843      N1845   1.318       .  A
N1843     Mn1849   2.269       .  S
N1844      C1851   1.365       .  A
N1845      N1846   1.327       .  A
N1845     Mn1871   2.244       .  S
N1846      C1851   1.362       .  A
N1847      N1848   1.325       .  A
N1847     Mn1849   2.222       .  S
N1848      C1850   1.361       .  A
Mn1849    Cl1873   2.577       .  S
C1850      C1877   1.540       .  S
C1851      C1893   1.573       .  S
N1852      N1853   1.324       .  A
N1852      N1858   1.316       .  A
N1852     Mn1860   2.242       .  S
N1853      C1861   1.360       .  A
N1854      N1856   1.318       .  A
N1854      N1855   1.326       .  A
N1854     Mn1872   2.243       .  S
N1855      C1862   1.359       .  A
N1856      N1857   1.328       .  A
N1856     Mn1860   2.248       .  S
N1857      C1862   1.363       .  A
N1858      N1859   1.326       .  A
N1858     Mn1872   2.220       .  S
N1859      C1861   1.359       .  A
Mn1860    Cl1873   2.562       .  S
C1861      C1878   1.548       .  S
C1862      C1883   1.559       .  S
N1863      N1864   1.322       .  A
N1863      N1869   1.318       .  A
N1863     Mn1871   2.220       .  S
N1864      C1874   1.356       .  A
N1865      N1866   1.327       .  A
N1865      N1867   1.317       .  A
N1865     Mn1872   2.228       .  S
N1866      C1875   1.358       .  A
N1867      N1868   1.321       .  A
N1867     Mn1871   2.229       .  S
N1868      C1875   1.359       .  A
N1869      N1870   1.323       .  A
N1869     Mn1872   2.223       .  S
N1870      C1874   1.358       .  A
Mn1871    Cl1873   2.558       .  S
Mn1872    Cl1873   2.580       .  S
C1874      C1882   1.539       .  S
C1875      C1876   1.548       .  S
C1876      C2107   1.564       .  S
C1876      C2117   1.575       .  S
C1876      C2127   1.564       .  S
C1877      C2080   1.581       .  S
C1877      C2087   1.558       .  S
C1877      C2097   1.579       .  S
C1878      C2047   1.585       .  S
C1878      C2060   1.580       .  S
C1878      C2067   1.578       .  S
C1879      C2017   1.571       .  S
C1879      C2030   1.582       .  S
C1879      C2040   1.574       .  S
C1880      C2090   1.517       .  S
C1881      C2020   1.503       .  S
C1882      C1990   1.571       .  S
C1882      C1997   1.570       .  S
C1882      C2007   1.564       .  S
C1883      C1960   1.567       .  S
C1883      C1970   1.583       .  S
C1883      C1977   1.568       .  S
C1884      C2120   1.527       .  S
C1884      C2190   1.406       .  D
C1885      C1987   1.523       .  S
C1885      C2189   1.406   1_554  D
C1886      C1927   1.553       .  S
C1886      C1937   1.568       .  S
C1886      C1950   1.566       .  S
C1887      C1917   1.518       .  S
C1888      C1947   1.558       .  S
C1889      C1967   1.499   1_556  S
C1889      C2375   1.515       .  S
C1890      C1940   1.552       .  S
C1890      C2332   1.512   1_554  S
C1891      C1910   1.552       .  S
C1891      C2405   1.511   1_554  S
C1892      C1930   1.503       .  S
C1892      C2342   1.508   1_554  S
C1893      C1897   1.577       .  S
C1893      C1907   1.575       .  S
C1893      C1920   1.591       .  S
C1894      C2000   1.537       .  S
C1894      C2415   1.509   1_554  S
C1895      C1900   1.503       .  S
C1895      C2382   1.524   1_554  S
C1896      C1897   1.421       .  A
C1896      C1901   1.421       .  A
C1896      H1903   1.075       .  S
C1897      C1898   1.409       .  A
C1898      C1899   1.378       .  A
C1898      F1905   1.331       .  S
C1899      C1900   1.388       .  A
C1899      H1904   1.081       .  S
C1900      C1901   1.412       .  A
C1901      F1902   1.348       .  S
C1906      C1907   1.407       .  A
C1906      C1911   1.417       .  A
C1906      H1913   1.083       .  S
C1907      C1908   1.410       .  A
C1908      C1909   1.401       .  A
C1908      F1915   1.358       .  S
C1909      C1910   1.424       .  A
C1909      H1914   1.082       .  S
C1910      C1911   1.421       .  A
C1911      F1912   1.350   1_655  S
C1916      C1917   1.384       .  A
C1916      C1921   1.390       .  A
C1916      H1923   1.084   1_655  S
C1917      C1918   1.411       .  A
C1918      C1919   1.415       .  A
C1918      F1925   1.349       .  S
C1919      C1920   1.416       .  A
C1919      H1924   1.082       .  S
C1920      C1921   1.443       .  A
C1921      F1922   1.340       .  S
C1926      C1927   1.417       .  A
C1926      C1931   1.400       .  A
C1926      H1933   1.083       .  S
C1927      C1928   1.413       .  A
C1928      C1929   1.399       .  A
C1928      F1935   1.355       .  S
C1929      C1930   1.403       .  A
C1929      H1934   1.067       .  S
C1930      C1931   1.404       .  A
C1931      F1932   1.353       .  S
C1936      C1937   1.406       .  A
C1936      C1941   1.391       .  A
C1936      H1943   1.068       .  S
C1937      C1938   1.421       .  A
C1938      C1939   1.412       .  A
C1938      F1945   1.354       .  S
C1939      C1940   1.421       .  A
C1939      H1944   1.081       .  S
C1940      C1941   1.398       .  A
C1941      F1942   1.347       .  S
C1946      C1947   1.411       .  A
C1946      C1951   1.409       .  A
C1946      H1953   1.079       .  S
C1947      C1948   1.430       .  A
C1948      C1949   1.401       .  A
C1948      F1955   1.355       .  S
C1949      C1950   1.405       .  A
C1949      H1954   1.083       .  S
C1950      C1951   1.416       .  A
C1951      F1952   1.357       .  S
C1956      C1957   1.398       .  A
C1956      C1961   1.414       .  A
C1956      H1963   1.069       .  S
C1957      C1958   1.399       .  A
C1958      C1959   1.377       .  A
C1958      F1965   1.348       .  S
C1959      C1960   1.415       .  A
C1959      H1964   1.074       .  S
C1960      C1961   1.422       .  A
C1961      F1962   1.357       .  S
C1966      C1967   1.390       .  A
C1966      C1971   1.414       .  A
C1966      H1973   1.067       .  S
C1967      C1968   1.394       .  A
C1968      C1969   1.389       .  A
C1968      F1975   1.357       .  S
C1969      C1970   1.429       .  A
C1969      H1974   1.069       .  S
C1970      C1971   1.421       .  A
C1971      F1972   1.349       .  S
C1976      C1977   1.418       .  A
C1976      C1981   1.410       .  A
C1976      H1983   1.082       .  S
C1977      C1978   1.418       .  A
C1978      C1979   1.372       .  A
C1978      F1985   1.329       .  S
C1979      C1980   1.382       .  A
C1979      H1984   1.085       .  S
C1980      C1981   1.410       .  A
C1981      F1982   1.343       .  S
C1986      C1987   1.388       .  A
C1986      C1991   1.389       .  A
C1986      H1993   1.067       .  S
C1987      C1988   1.422       .  A
C1988      C1989   1.401       .  A
C1988      F1995   1.352       .  S
C1989      C1990   1.413       .  A
C1989      H1994   1.080       .  S
C1990      C1991   1.413       .  A
C1991      F1992   1.336       .  S
C1996      C1997   1.411       .  A
C1996      C2001   1.391       .  A
C1996      H2003   1.079       .  S
C1997      C1998   1.397       .  A
C1998      C1999   1.404       .  A
C1998      F2005   1.358       .  S
C1999      C2000   1.424       .  A
C1999      H2004   1.082       .  S
C2000      C2001   1.416       .  A
C2001      F2002   1.347   1_565  S
C2006      C2007   1.411       .  A
C2006      C2011   1.411       .  A
C2006      H2013   1.081       .  S
C2007      C2008   1.424       .  A
C2008      C2009   1.388       .  A
C2008      F2015   1.354       .  S
C2009      C2010   1.391       .  A
C2009      H2014   1.084       .  S
C2010      C2011   1.408       .  A
C2011      F2012   1.351       .  S
C2016      C2017   1.423       .  A
C2016      C2021   1.382       .  A
C2016      H2023   1.073       .  S
C2017      C2018   1.425       .  A
C2018      C2019   1.413       .  A
C2018      F2025   1.355       .  S
C2019      C2020   1.399       .  A
C2019      H2024   1.070       .  S
C2020      C2021   1.392       .  A
C2021      F2022   1.354       .  S
C2026      C2027   1.390       .  A
C2026      C2031   1.373       .  A
C2026      H2033   1.085       .  S
C2027      C2195   1.512       .  S
C2027      C2028   1.411       .  A
C2028      C2029   1.417       .  A
C2028      F2035   1.352       .  S
C2029      C2030   1.426       .  A
C2029      H2034   1.079       .  S
C2030      C2031   1.426       .  A
C2031      F2032   1.337       .  S
C2036      C2037   1.415       .  A
C2036      C2041   1.420       .  A
C2036      H2043   1.080       .  S
C2037      C2197   1.508       .  S
C2037      C2038   1.395       .  A
C2038      C2039   1.381       .  A
C2038      F2045   1.350       .  S
C2039      C2040   1.412       .  A
C2039      H2044   1.070       .  S
C2040      C2041   1.422       .  A
C2041      F2042   1.356       .  S
C2046      C2047   1.410       .  A
C2046      C2051   1.408       .  A
C2046      H2053   1.078       .  S
C2047      C2048   1.424       .  A
C2048      C2049   1.386       .  A
C2048      F2055   1.339       .  S
C2049      C2050   1.393       .  A
C2049      H2054   1.073       .  S
C2050      C2051   1.422       .  A
C2051      F2052   1.351       .  S
C2056      C2057   1.412       .  A
C2056      C2061   1.413       .  A
C2056      H2063   1.068       .  S
C2057      C2058   1.428       .  A
C2058      C2059   1.400       .  A
C2058      F2065   1.351       .  S
C2059      C2060   1.407       .  A
C2059      H2064   1.083       .  S
C2060      C2061   1.420       .  A
C2061      F2062   1.348       .  S
C2066      C2067   1.416       .  A
C2066      C2071   1.413       .  A
C2066      H2073   1.082       .  S
C2067      C2068   1.422       .  A
C2068      C2069   1.395       .  A
C2068      F2075   1.348       .  S
C2069      C2070   1.396       .  A
C2069      H2074   1.081       .  S
C2070      C2194   1.515       .  S
C2070      C2071   1.417       .  A
C2071      F2072   1.354       .  S
C2076      C2077   1.410       .  A
C2076      C2081   1.410       .  A
C2076      H2083   1.080       .  S
C2077      C2200   1.524       .  S
C2077      C2078   1.411       .  A
C2078      C2079   1.398       .  A
C2078      F2085   1.355       .  S
C2079      C2080   1.423       .  A
C2079      H2084   1.076       .  S
C2080      C2081   1.418       .  A
C2081      F2082   1.357       .  S
C2086      C2087   1.406       .  A
C2086      C2091   1.400       .  A
C2086      H2093   1.081       .  S
C2087      C2088   1.414       .  A
C2088      C2089   1.382       .  A
C2088      F2095   1.339       .  S
C2089      C2090   1.397       .  A
C2089      H2094   1.072       .  S
C2090      C2091   1.415       .  A
C2091      F2092   1.335       .  S
C2096      C2097   1.415       .  A
C2096      C2101   1.373       .  A
C2096      H2103   1.064       .  S
C2097      C2098   1.435       .  A
C2098      C2099   1.416       .  A
C2098      F2105   1.350       .  S
C2099      C2100   1.396       .  A
C2099      H2104   1.066       .  S
C2100      C2196   1.511       .  S
C2100      C2101   1.384       .  A
C2101      F2102   1.342       .  S
C2106      C2107   1.402       .  A
C2106      C2111   1.375       .  A
C2106      H2113   1.055       .  S
C2107      C2108   1.428       .  A
C2108      C2109   1.417       .  A
C2108      F2115   1.354       .  S
C2109      C2110   1.407       .  A
C2109      H2114   1.077       .  S
C2110      C2199   1.509       .  S
C2110      C2111   1.389       .  A
C2111      F2112   1.357       .  S
C2116      C2117   1.397       .  A
C2116      C2121   1.376       .  A
C2116      H2123   1.078       .  S
C2117      C2118   1.420       .  A
C2118      C2119   1.419       .  A
C2118      F2125   1.357       .  S
C2119      C2120   1.420       .  A
C2119      H2124   1.081       .  S
C2120      C2121   1.412       .  A
C2121      F2122   1.356   1_655  S
C2126      C2127   1.403       .  A
C2126      C2131   1.401       .  A
C2126      H2133   1.080       .  S
C2127      C2128   1.434       .  A
C2128      C2129   1.384       .  A
C2128      F2135   1.352       .  S
C2129      C2130   1.389       .  A
C2129      H2134   1.084       .  S
C2130      C2131   1.413       .  A
C2131      F2132   1.340       .  S
N2136      N2137   1.324       .  A
N2136      N2142   1.320       .  A
N2136     Mn2165   2.231       .  S
N2137      C2144   1.358       .  A
N2138      N2140   1.319       .  A
N2138      N2139   1.326       .  A
N2138     Mn2154   2.249       .  S
N2139      C2145   1.359       .  A
N2140      N2141   1.327       .  A
N2140     Mn2165   2.240       .  S
N2141      C2145   1.361       .  A
N2142      N2143   1.323       .  A
N2142     Mn2154   2.225       .  S
N2143      C2144   1.357       .  A
C2144      C2191   1.530       .  S
C2145      C2184   1.554       .  S
N2146      N2152   1.315       .  A
N2146      N2147   1.318       .  A
N2146     Mn2176   2.211       .  S
N2147      C2155   1.352       .  A
N2148      N2149   1.333       .  A
N2148      N2150   1.318       .  A
N2148     Mn2154   2.269       .  S
N2149      C2156   1.365       .  A
N2150      N2151   1.327       .  A
N2150     Mn2176   2.244       .  S
N2151      C2156   1.362       .  A
N2152      N2153   1.325       .  A
N2152     Mn2154   2.222       .  S
N2153      C2155   1.361       .  A
Mn2154    Cl2178   2.577       .  S
C2155      C2182   1.540       .  S
C2156      C2198   1.573       .  S
N2157      N2158   1.324       .  A
N2157      N2163   1.316       .  A
N2157     Mn2165   2.242       .  S
N2158      C2166   1.360       .  A
N2159      N2161   1.318       .  A
N2159      N2160   1.326       .  A
N2159     Mn2177   2.243       .  S
N2160      C2167   1.359       .  A
N2161      N2162   1.328       .  A
N2161     Mn2165   2.248       .  S
N2162      C2167   1.363       .  A
N2163      N2164   1.326       .  A
N2163     Mn2177   2.220       .  S
N2164      C2166   1.359       .  A
Mn2165    Cl2178   2.562       .  S
C2166      C2183   1.548       .  S
C2167      C2188   1.559       .  S
N2168      N2169   1.322       .  A
N2168      N2174   1.318       .  A
N2168     Mn2176   2.220       .  S
N2169      C2179   1.356       .  A
N2170      N2171   1.327       .  A
N2170      N2172   1.317       .  A
N2170     Mn2177   2.228       .  S
N2171      C2180   1.358       .  A
N2172      N2173   1.321       .  A
N2172     Mn2176   2.229       .  S
N2173      C2180   1.359       .  A
N2174      N2175   1.323       .  A
N2174     Mn2177   2.223       .  S
N2175      C2179   1.358       .  A
Mn2176    Cl2178   2.558       .  S
Mn2177    Cl2178   2.580       .  S
C2179      C2187   1.539       .  S
C2180      C2181   1.548       .  S
C2181      C2412   1.564       .  S
C2181      C2422   1.575       .  S
C2181      C2432   1.564       .  S
C2182      C2385   1.581       .  S
C2182      C2392   1.558       .  S
C2182      C2402   1.579       .  S
C2183      C2352   1.585       .  S
C2183      C2365   1.580       .  S
C2183      C2372   1.578       .  S
C2184      C2322   1.571       .  S
C2184      C2335   1.582       .  S
C2184      C2345   1.574       .  S
C2185      C2395   1.517       .  S
C2186      C2325   1.503       .  S
C2187      C2295   1.571       .  S
C2187      C2302   1.570       .  S
C2187      C2312   1.564       .  S
C2188      C2265   1.567       .  S
C2188      C2275   1.583       .  S
C2188      C2282   1.568       .  S
C2189      C2425   1.527       .  S
C2190      C2292   1.523       .  S
C2191      C2232   1.553       .  S
C2191      C2242   1.568       .  S
C2191      C2255   1.566       .  S
C2192      C2222   1.518       .  S
C2193      C2252   1.558       .  S
C2194      C2272   1.499       .  S
C2195      C2245   1.552       .  S
C2196      C2215   1.552       .  S
C2197      C2235   1.503       .  S
C2198      C2202   1.577       .  S
C2198      C2212   1.575       .  S
C2198      C2225   1.591       .  S
C2199      C2305   1.537       .  S
C2200      C2205   1.503       .  S
C2201      C2202   1.421       .  A
C2201      C2206   1.421       .  A
C2201      H2208   1.075       .  S
C2202      C2203   1.409       .  A
C2203      C2204   1.378       .  A
C2203      F2210   1.331       .  S
C2204      C2205   1.388       .  A
C2204      H2209   1.081       .  S
C2205      C2206   1.412       .  A
C2206      F2207   1.348       .  S
C2211      C2212   1.407       .  A
C2211      C2216   1.417       .  A
C2211      H2218   1.083       .  S
C2212      C2213   1.410       .  A
C2213      C2214   1.401       .  A
C2213      F2220   1.358       .  S
C2214      C2215   1.424       .  A
C2214      H2219   1.082       .  S
C2215      C2216   1.421       .  A
C2216      F2217   1.350   1_655  S
C2221      C2222   1.384       .  A
C2221      C2226   1.390       .  A
C2221      H2228   1.084   1_655  S
C2222      C2223   1.411       .  A
C2223      C2224   1.415       .  A
C2223      F2230   1.349       .  S
C2224      C2225   1.416       .  A
C2224      H2229   1.082       .  S
C2225      C2226   1.443       .  A
C2226      F2227   1.340       .  S
C2231      C2232   1.417       .  A
C2231      C2236   1.400       .  A
C2231      H2238   1.083       .  S
C2232      C2233   1.413       .  A
C2233      C2234   1.399       .  A
C2233      F2240   1.355       .  S
C2234      C2235   1.403       .  A
C2234      H2239   1.067       .  S
C2235      C2236   1.404       .  A
C2236      F2237   1.353       .  S
C2241      C2242   1.406       .  A
C2241      C2246   1.391       .  A
C2241      H2248   1.068       .  S
C2242      C2243   1.421       .  A
C2243      C2244   1.412       .  A
C2243      F2250   1.354       .  S
C2244      C2245   1.421       .  A
C2244      H2249   1.081       .  S
C2245      C2246   1.398       .  A
C2246      F2247   1.347       .  S
C2251      C2252   1.411       .  A
C2251      C2256   1.409       .  A
C2251      H2258   1.079       .  S
C2252      C2253   1.430       .  A
C2253      C2254   1.401       .  A
C2253      F2260   1.355       .  S
C2254      C2255   1.405       .  A
C2254      H2259   1.083       .  S
C2255      C2256   1.416       .  A
C2256      F2257   1.357       .  S
C2261      C2262   1.398       .  A
C2261      C2266   1.414       .  A
C2261      H2268   1.069       .  S
C2262      C2263   1.399       .  A
C2263      C2264   1.377       .  A
C2263      F2270   1.348       .  S
C2264      C2265   1.415       .  A
C2264      H2269   1.074       .  S
C2265      C2266   1.422       .  A
C2266      F2267   1.357       .  S
C2271      C2272   1.390       .  A
C2271      C2276   1.414       .  A
C2271      H2278   1.067       .  S
C2272      C2273   1.394       .  A
C2273      C2274   1.389       .  A
C2273      F2280   1.357       .  S
C2274      C2275   1.429       .  A
C2274      H2279   1.069       .  S
C2275      C2276   1.421       .  A
C2276      F2277   1.349       .  S
C2281      C2282   1.418       .  A
C2281      C2286   1.410       .  A
C2281      H2288   1.082       .  S
C2282      C2283   1.418       .  A
C2283      C2284   1.372       .  A
C2283      F2290   1.329       .  S
C2284      C2285   1.382       .  A
C2284      H2289   1.085       .  S
C2285      C2286   1.410       .  A
C2286      F2287   1.343       .  S
C2291      C2292   1.388       .  A
C2291      C2296   1.389       .  A
C2291      H2298   1.067       .  S
C2292      C2293   1.422       .  A
C2293      C2294   1.401       .  A
C2293      F2300   1.352       .  S
C2294      C2295   1.413       .  A
C2294      H2299   1.080       .  S
C2295      C2296   1.413       .  A
C2296      F2297   1.336       .  S
C2301      C2302   1.411       .  A
C2301      C2306   1.391       .  A
C2301      H2308   1.079       .  S
C2302      C2303   1.397       .  A
C2303      C2304   1.404       .  A
C2303      F2310   1.358       .  S
C2304      C2305   1.424       .  A
C2304      H2309   1.082       .  S
C2305      C2306   1.416       .  A
C2306      F2307   1.347   1_565  S
C2311      C2312   1.411       .  A
C2311      C2316   1.411       .  A
C2311      H2318   1.081       .  S
C2312      C2313   1.424       .  A
C2313      C2314   1.388       .  A
C2313      F2320   1.354       .  S
C2314      C2315   1.391       .  A
C2314      H2319   1.084       .  S
C2315      C2316   1.408       .  A
C2316      F2317   1.351       .  S
C2321      C2322   1.423       .  A
C2321      C2326   1.382       .  A
C2321      H2328   1.073       .  S
C2322      C2323   1.425       .  A
C2323      C2324   1.413       .  A
C2323      F2330   1.355       .  S
C2324      C2325   1.399       .  A
C2324      H2329   1.070       .  S
C2325      C2326   1.392       .  A
C2326      F2327   1.354       .  S
C2331      C2332   1.390       .  A
C2331      C2336   1.373       .  A
C2331      H2338   1.085   1_556  S
C2332      C2333   1.411       .  A
C2333      C2334   1.417       .  A
C2333      F2340   1.352       .  S
C2334      C2335   1.426       .  A
C2334      H2339   1.079       .  S
C2335      C2336   1.426       .  A
C2336      F2337   1.337       .  S
C2341      C2342   1.415       .  A
C2341      C2346   1.420       .  A
C2341      H2348   1.080       .  S
C2342      C2343   1.395       .  A
C2343      C2344   1.381       .  A
C2343      F2350   1.350       .  S
C2344      C2345   1.412       .  A
C2344      H2349   1.070       .  S
C2345      C2346   1.422       .  A
C2346      F2347   1.356       .  S
C2351      C2352   1.410       .  A
C2351      C2356   1.408       .  A
C2351      H2358   1.078       .  S
C2352      C2353   1.424       .  A
C2353      C2354   1.386       .  A
C2353      F2360   1.339       .  S
C2354      C2355   1.393       .  A
C2354      H2359   1.073       .  S
C2355      C2356   1.422       .  A
C2356      F2357   1.351       .  S
C2361      C2362   1.412       .  A
C2361      C2366   1.413       .  A
C2361      H2368   1.068       .  S
C2362      C2363   1.428       .  A
C2363      C2364   1.400       .  A
C2363      F2370   1.351       .  S
C2364      C2365   1.407       .  A
C2364      H2369   1.083       .  S
C2365      C2366   1.420       .  A
C2366      F2367   1.348       .  S
C2371      C2372   1.416       .  A
C2371      C2376   1.413       .  A
C2371      H2378   1.082       .  S
C2372      C2373   1.422       .  A
C2373      C2374   1.395       .  A
C2373      F2380   1.348       .  S
C2374      C2375   1.396       .  A
C2374      H2379   1.081       .  S
C2375      C2376   1.417       .  A
C2376      F2377   1.354       .  S
C2381      C2382   1.410       .  A
C2381      C2386   1.410       .  A
C2381      H2388   1.080       .  S
C2382      C2383   1.411       .  A
C2383      C2384   1.398       .  A
C2383      F2390   1.355       .  S
C2384      C2385   1.423       .  A
C2384      H2389   1.076       .  S
C2385      C2386   1.418       .  A
C2386      F2387   1.357       .  S
C2391      C2392   1.406       .  A
C2391      C2396   1.400       .  A
C2391      H2398   1.081       .  S
C2392      C2393   1.414       .  A
C2393      C2394   1.382       .  A
C2393      F2400   1.339       .  S
C2394      C2395   1.397       .  A
C2394      H2399   1.072       .  S
C2395      C2396   1.415       .  A
C2396      F2397   1.335       .  S
C2401      C2402   1.415       .  A
C2401      C2406   1.373       .  A
C2401      H2408   1.064       .  S
C2402      C2403   1.435       .  A
C2403      C2404   1.416       .  A
C2403      F2410   1.350       .  S
C2404      C2405   1.396       .  A
C2404      H2409   1.066       .  S
C2405      C2406   1.384       .  A
C2406      F2407   1.342       .  S
C2411      C2412   1.402       .  A
C2411      C2416   1.375       .  A
C2411      H2418   1.055       .  S
C2412      C2413   1.428       .  A
C2413      C2414   1.417       .  A
C2413      F2420   1.354       .  S
C2414      C2415   1.407       .  A
C2414      H2419   1.077       .  S
C2415      C2416   1.389       .  A
C2416      F2417   1.357   1_556  S
C2421      C2422   1.397       .  A
C2421      C2426   1.376       .  A
C2421      H2428   1.078       .  S
C2422      C2423   1.420       .  A
C2423      C2424   1.419       .  A
C2423      F2430   1.357       .  S
C2424      C2425   1.420       .  A
C2424      H2429   1.081       .  S
C2425      C2426   1.412       .  A
C2426      F2427   1.356   1_655  S
C2431      C2432   1.403       .  A
C2431      C2436   1.401       .  A
C2431      H2438   1.080       .  S
C2432      C2433   1.434       .  A
C2433      C2434   1.384       .  A
C2433      F2440   1.352       .  S
C2434      C2435   1.389       .  A
C2434      H2439   1.084       .  S
C2435      C2436   1.413       .  A
C2436      F2437   1.340       .  S
