geometry optimzed in LAMMPS
_audit_creation_date              2020-12-01 
_audit_creation_method            'lammps2cif' 
_symmetry_space_group_name_H-M    'P1' 
_symmetry_Int_Tables_number       1 
_symmetry_cell_setting            triclinic 
loop_ 
_symmetry_equiv_pos_as_xyz 
  x,y,z 
_cell_length_a                    42.94278574 
_cell_length_b                    42.993922119573426 
_cell_length_c                    32.10570159170552 
_cell_angle_alpha                 90.03116052586844 
_cell_angle_beta                  90.00651726366566 
_cell_angle_gamma                 134.7161090521714 
loop_ 
_atom_site_label 
_atom_site_type_symbol 
_atom_site_fract_x 
_atom_site_fract_y 
_atom_site_fract_z 
_atom_site_charge 
N1          N  0.10136841  0.54828018  0.34474712    -0.27400
N2          N  0.14267314  0.56800904  0.34493052    -0.35300
C3          C  0.15790788  0.57888037  0.30558908     0.00900
C4          C  0.12459506  0.56559871  0.27968291     0.06900
C5          C  0.08928500  0.54629487  0.30550685    -0.06200
H6          H  0.19119294  0.59664537  0.29679655     0.07600
H7          H  0.05749488  0.53294331  0.29669499     0.08800
Cu8        Cu  0.17743027  0.58317342  0.39909405     0.44200
Cu9        Cu  0.06391934  0.52864104  0.39754897     0.42000
Cu10       Cu  0.11805590  0.55685543  0.49537715     0.43900
N11         N  0.20469033  0.59843373  0.45810437    -0.34800
N12         N  0.18272711  0.58831683  0.49285852    -0.29100
C13         C  0.20986369  0.60425520  0.52548640    -0.05200
C14         C  0.25108209  0.62568183  0.51070365     0.07000
C15         C  0.24658135  0.62130410  0.46778710     0.00800
H16         H  0.20037822  0.60158423  0.55749091     0.08500
H17         H  0.27186388  0.63433659  0.44506633     0.07600
N18         N  0.05543713  0.53057819  0.49004303    -0.36300
N19         N  0.03532383  0.51972509  0.45387255    -0.28500
C20         C  0.99660755  0.50662288  0.46004789    -0.03700
C21         C  0.99230900  0.50961542  0.50214977     0.04900
C22         C  0.03013048  0.52480886  0.52031018     0.03000
H23         H  0.97417943  0.49741533  0.43545595     0.08100
H24         H  0.03935422  0.53264667  0.55280277     0.06900
C25         C  0.33714374  0.67832535  0.59774794     0.86300
C26         C  0.36415174  0.72408987  0.57907885    -0.53900
C27         C  0.36403612  0.72502594  0.53659333     0.09300
C28         C  0.33750336  0.68006276  0.51633344     0.20200
C29         C  0.29147197  0.64902883  0.57798391    -0.54600
C30         C  0.29154256  0.65023725  0.53551557     0.09400
C31         C  0.35673019  0.66272947  0.57703593    -0.54200
C32         C  0.35671977  0.66350994  0.53455384     0.09900
H33         H  0.38156499  0.75315389  0.59812528     0.14500
H34         H  0.33744008  0.68094472  0.48193502     0.00200
H35         H  0.26169949  0.62918465  0.59640252     0.14800
H36         H  0.36969319  0.65192445  0.59331845     0.14500
N37         N  0.43169590  0.59555925  0.33703092    -0.27400
N38         N  0.41313486  0.61020501  0.33937029    -0.35300
C39         C  0.40422914  0.61405179  0.30068986     0.00900
C40         C  0.41795303  0.60111130  0.27301843     0.06900
C41         C  0.43508297  0.58953022  0.29701853    -0.06200
H42         H  0.38913580  0.62555054  0.29338631     0.07600
H43         H  0.44927055  0.57785806  0.28635219     0.08800
Cu44       Cu  0.40109329  0.62390357  0.39500141     0.44200
Cu45       Cu  0.45163847  0.58406516  0.38742409     0.42000
Cu46       Cu  0.42512418  0.59544677  0.48830654     0.43900
N47         N  0.39108710  0.63255297  0.45480087    -0.34800
N48         N  0.39920829  0.62178426  0.48866784    -0.29100
C49         C  0.38850858  0.63127310  0.52223631    -0.05200
C50         C  0.37296022  0.64892131  0.50876974     0.07000
C51         C  0.37509447  0.64920429  0.46581905     0.00800
H52         H  0.39179777  0.62552519  0.55397206     0.08500
H53         H  0.36567684  0.66045053  0.44389894     0.07600
N54         N  0.45433813  0.57307076  0.47868733    -0.36300
N55         N  0.46468885  0.56966980  0.44139493    -0.28500
C56         C  0.48248558  0.55375304  0.44502602    -0.03700
C57         C  0.48325706  0.54669742  0.48670852     0.04900
C58         C  0.46527530  0.55932283  0.50726210     0.03000
H59         H  0.49315821  0.54702336  0.41915061     0.08100
H60         H  0.45993504  0.55806126  0.54039912     0.06900
N61         N  0.86210687  0.50460381  0.67100605    -0.27400
N62         N  0.82358469  0.49149737  0.66827730    -0.35300
C63         C  0.81229016  0.49446042  0.70609126     0.00900
C64         C  0.84542082  0.51036855  0.73376886     0.06900
C65         C  0.87647286  0.51654343  0.71047020    -0.06200
H66         H  0.78194366  0.48507855  0.71296861     0.07600
H67         H  0.90674031  0.52765798  0.72155892     0.08800
Cu68       Cu  0.78767981  0.46928492  0.61363822     0.44200
Cu69       Cu  0.89308953  0.50372822  0.62217499     0.42000
Cu70       Cu  0.83890982  0.47061149  0.52332791     0.43900
N71         N  0.75999792  0.44983517  0.55469905    -0.34800
N72         N  0.77926170  0.45117183  0.52167284    -0.29100
C73         C  0.75292206  0.43595319  0.48845568    -0.05200
C74         C  0.71502728  0.42416756  0.50119585     0.07000
C75         C  0.72066025  0.43345652  0.54340452     0.00800
H76         H  0.76040239  0.43252509  0.45765040     0.08500
H77         H  0.69788886  0.42847033  0.56457077     0.07600
N78         N  0.89685614  0.48761713  0.53224001    -0.36300
N79         N  0.91693343  0.49957572  0.56859392    -0.28500
C80         C  0.95377380  0.50863651  0.56381447    -0.03700
C81         C  0.95681106  0.50204331  0.52241324     0.04900
C82         C  0.92020937  0.48872952  0.50334376     0.03000
H83         H  0.97685256  0.51977469  0.58848783     0.08100
H84         H  0.91133542  0.48085697  0.47078619     0.06900
N85         N  0.52954194  0.46540920  0.65945289    -0.27400
N86         N  0.54794477  0.45058392  0.66046496    -0.35300
C87         C  0.55189063  0.44431756  0.70038334     0.00900
C88         C  0.53501908  0.45586701  0.72522835     0.06900
C89         C  0.52112994  0.46900391  0.69831095    -0.06200
H90         H  0.56627799  0.43269532  0.71045451     0.07600
H91         H  0.50663911  0.48101349  0.70622144     0.08800
Cu92       Cu  0.56704785  0.44130330  0.60685536     0.44200
Cu93       Cu  0.51859867  0.48230637  0.60615154     0.42000
Cu94       Cu  0.55044097  0.47293230  0.50824560     0.43900
N95         N  0.58230533  0.43544669  0.54827966    -0.34800
N96         N  0.57643945  0.44665671  0.51298676    -0.29100
C97         C  0.58883964  0.43708701  0.48116277    -0.05200
C98         C  0.60305849  0.41890994  0.49718305     0.07000
C99         C  0.59850487  0.41849530  0.53982938     0.00800
H100        H  0.58679316  0.44232184  0.44874840     0.08500
H101        H  0.60546959  0.40600686  0.56323802     0.07600
N102        N  0.52380558  0.49841009  0.51475650    -0.36300
N103        N  0.51239849  0.50162467  0.55145444    -0.28500
C104        C  0.49669680  0.51946932  0.54698884    -0.03700
C105        C  0.49809457  0.52790148  0.50534348     0.04900
C106        C  0.51541901  0.51418135  0.48555534     0.03000
H107        H  0.48502845  0.52564927  0.57232030     0.08100
H108        H  0.52143046  0.51550564  0.45258014     0.06900
C109        C  0.63118281  0.37804336  0.41322188     0.86300
C110        C  0.67577451  0.40198700  0.43321498    -0.53900
C111        C  0.67593341  0.40363373  0.47571744     0.09300
C112        C  0.63112021  0.38021748  0.49461526     0.20200
C113        C  0.59981635  0.33243746  0.43423569    -0.54600
C114        C  0.59991322  0.33371169  0.47676692     0.09400
C115        C  0.61724808  0.39976514  0.43139077    -0.54200
C116        C  0.61726076  0.40108179  0.47378674     0.09900
H117        H  0.70458056  0.41623642  0.41509928     0.14500
H118        H  0.63125554  0.38108161  0.52902551     0.00200
H119        H  0.57963268  0.30155608  0.41814712     0.14800
H120        H  0.60761694  0.41245964  0.41191236     0.14500
N121        N  0.45057552  0.91067733  0.34692280    -0.27400
N122        N  0.44135063  0.87415828  0.34730757    -0.35300
C123        C  0.44472523  0.86542281  0.30820112     0.00900
C124        C  0.45695727  0.89830136  0.28236919     0.06900
C125        C  0.46033511  0.92634406  0.30794935    -0.06200
H126        H  0.43896065  0.83744088  0.29933828     0.07600
H127        H  0.46895272  0.95586363  0.29897598     0.08800
Cu128      Cu  0.42533150  0.83897720  0.40152990     0.44200
Cu129      Cu  0.45002075  0.93844388  0.39870978     0.42000
Cu130      Cu  0.42999065  0.88871773  0.49721947     0.43900
N131        N  0.40999652  0.81142418  0.46056351    -0.34800
N132        N  0.41266415  0.83007553  0.49502252    -0.29100
C133        C  0.39847086  0.80304299  0.52733314    -0.05200
C134        C  0.38581146  0.76528173  0.51262428     0.07000
C135        C  0.39367966  0.77177212  0.47014609     0.00800
H136        H  0.39546260  0.80959156  0.55883820     0.08500
H137        H  0.38700237  0.74901317  0.44756930     0.07600
N138        N  0.44322094  0.94489799  0.49054717    -0.36300
N139        N  0.45041183  0.96294673  0.45392910    -0.28500
C140        C  0.45835009  0.99895816  0.45921934    -0.03700
C141        C  0.45593159  0.00374808  0.50125661     0.04900
C142        C  0.44622966  0.96892179  0.52032141     0.03000
H143        H  0.46561996  0.02015590  0.43426411     0.08100
H144        H  0.44203994  0.96174058  0.55329243     0.06900
N145        N  0.48728396  0.14676058  0.67302461    -0.27400
N146        N  0.50403280  0.18687962  0.67136330    -0.35300
C147        C  0.50906944  0.20115855  0.71048921     0.00900
C148        C  0.49509749  0.16848695  0.73777371     0.06900
C149        C  0.48138413  0.13452262  0.71295528    -0.06200
H150        H  0.52381882  0.23362483  0.71844264     0.07600
H151        H  0.46968625  0.10379310  0.72308144     0.08800
Cu152      Cu  0.52379091  0.22194473  0.61629164     0.44200
Cu153      Cu  0.47685154  0.11091416  0.62235362     0.42000
Cu154      Cu  0.50371988  0.16152686  0.52348346     0.43900
N155        N  0.54318869  0.24862804  0.55674851    -0.34800
N156        N  0.53479509  0.22593542  0.52319003    -0.29100
C157        C  0.55272004  0.25231612  0.48984649    -0.05200
C158        C  0.57371580  0.29387828  0.50283615     0.07000
C159        C  0.56701499  0.29035552  0.54552336     0.00800
H160        H  0.55178472  0.24206650  0.45871450     0.08500
H161        H  0.57901547  0.31617619  0.56704357     0.07600
N162        N  0.48109934  0.10083198  0.53112859    -0.36300
N163        N  0.47176651  0.08224066  0.56788589    -0.28500
C164        C  0.46077946  0.04445793  0.56306013    -0.03700
C165        C  0.46333934  0.03918923  0.52113933     0.04900
C166        C  0.47624942  0.07545033  0.50178084     0.03000
H167        H  0.45234027  0.02293909  0.58824988     0.08100
H168        H  0.48275727  0.08344380  0.46897983     0.06900
N169        N  0.52030355  0.46322528  0.83443455    -0.27400
N170        N  0.54092688  0.45076951  0.83733847    -0.35300
C171        C  0.54920955  0.44581871  0.79883623     0.00900
C172        C  0.53301760  0.45576080  0.77063546     0.06900
C173        C  0.51497272  0.46666852  0.79415946    -0.06200
H174        H  0.56603120  0.43608217  0.79201711     0.07600
H175        H  0.49926305  0.47658371  0.78298502     0.08800
Cu176      Cu  0.55734895  0.44169314  0.89315309     0.44200
Cu177      Cu  0.50051144  0.47585717  0.88429964     0.42000
Cu178      Cu  0.52542213  0.46179155  0.98521775     0.43900
N179        N  0.56954040  0.43493984  0.95289378    -0.34800
N180        N  0.55786590  0.44218689  0.98667464    -0.29100
C181        C  0.57016304  0.43449620  0.02040468    -0.05200
C182        C  0.59050938  0.42169261  0.00714976     0.07000
C183        C  0.58950117  0.42241591  0.96410355     0.00800
H184        H  0.56429755  0.43770687  0.05213126     0.08500
H185        H  0.60200168  0.41424842  0.94227034     0.07600
N186        N  0.49545014  0.48349487  0.97603538    -0.36300
N187        N  0.48635876  0.48874699  0.93894572    -0.28500
C188        C  0.46938453  0.50548481  0.94346481    -0.03700
C189        C  0.46786871  0.51110393  0.98550581     0.04900
C190        C  0.48447344  0.49672122  0.00525228     0.03000
H191        H  0.46009596  0.51405678  0.91800278     0.08100
H192        H  0.48941203  0.49697321  0.03833420     0.06900
N193        N  0.42346514  0.59243110  0.16191417    -0.27400
N194        N  0.40615538  0.60841199  0.16266417    -0.35300
C195        C  0.40111169  0.61383458  0.20246842     0.00900
C196        C  0.41608997  0.60057980  0.22762467     0.06900
C197        C  0.42999752  0.58722554  0.20100180    -0.06200
H198        H  0.38778282  0.62662211  0.21222076     0.07600
H199        H  0.44379791  0.57458105  0.20925323     0.08800
Cu200      Cu  0.39082771  0.62202273  0.10944214     0.44200
Cu201      Cu  0.43645188  0.57702070  0.10861743     0.42000
Cu202      Cu  0.40805637  0.59156092  0.01146071     0.43900
N203        N  0.38008135  0.63287490  0.05109129    -0.34800
N204        N  0.38619288  0.62185157  0.01584027    -0.29100
C205        C  0.37680628  0.63421894  0.98387017    -0.05200
C206        C  0.36425960  0.65403134  0.99971736     0.07000
C207        C  0.36671638  0.65255532  0.04248224     0.00800
H208        H  0.37941758  0.62938235  0.95148239     0.08500
H209        H  0.35977291  0.66512008  0.06583786     0.07600
N210        N  0.43162881  0.56297217  0.01662442    -0.36300
N211        N  0.44222793  0.55814476  0.05294571    -0.28500
C212        C  0.45623733  0.53874845  0.04732965    -0.03700
C213        C  0.45449929  0.53095030  0.00533819     0.04900
C214        C  0.43878595  0.54671863  0.98659236     0.03000
H215        H  0.46697400  0.53104514  0.07210575     0.08100
H216        H  0.43309656  0.54651945  0.95372575     0.06900
C217        C  0.33898835  0.69643577  0.91459324     0.86300
C218        C  0.29480157  0.67390729  0.93450950    -0.53900
C219        C  0.29475293  0.67303664  0.97701517     0.09300
C220        C  0.33945638  0.69588665  0.99598898     0.20200
C221        C  0.37122461  0.74250274  0.93469931    -0.54600
C222        C  0.37144997  0.74213312  0.97725689     0.09400
C223        C  0.35197504  0.67417880  0.93353575    -0.54200
C224        C  0.35206183  0.67355316  0.97592272     0.09900
H225        H  0.26613333  0.65993447  0.91627803     0.14500
H226        H  0.33953643  0.69562021  0.03041209     0.00200
H227        H  0.39153473  0.77303181  0.91790688     0.14800
H228        H  0.36056180  0.66026698  0.91449063     0.14500
N229        N  0.11019999  0.57837678  0.17169534    -0.27400
N230        N  0.14915049  0.59237891  0.16949722    -0.35300
C231        C  0.16042220  0.58989234  0.20755123     0.00900
C232        C  0.12674877  0.57327449  0.23476531     0.06900
C233        C  0.09549141  0.56632171  0.21101337    -0.06200
H234        H  0.19078562  0.59941045  0.21476596     0.07600
H235        H  0.06454188  0.55397597  0.22154995     0.08800
Cu236      Cu  0.18459982  0.61344645  0.11478087     0.44200
Cu237      Cu  0.07866258  0.57710074  0.12203624     0.42000
Cu238      Cu  0.13160744  0.60759762  0.02266754     0.43900
N239        N  0.21125439  0.63012629  0.05556750    -0.34800
N240        N  0.19148742  0.62705839  0.02192790    -0.29100
C241        C  0.21755989  0.64083117  0.98877889    -0.05200
C242        C  0.25578244  0.65352473  0.00223680     0.07000
C243        C  0.25056300  0.64618437  0.04476729     0.00800
H244        H  0.20968057  0.64269412  0.95746688     0.08500
H245        H  0.27361830  0.65233927  0.06650913     0.07600
N246        N  0.07351331  0.59068431  0.03166492    -0.36300
N247        N  0.05399343  0.57951496  0.06823000    -0.28500
C248        C  0.01663786  0.56950577  0.06361117    -0.03700
C249        C  0.01253400  0.57459561  0.02207877     0.04900
C250        C  0.04918672  0.58815233  0.00275013     0.03000
H251        H  0.99380743  0.55849417  0.08848881     0.08100
H252        H  0.05722451  0.59485386  0.96996741     0.06900
N253        N  0.47876664  0.92801439  0.17290000    -0.27400
N254        N  0.46197645  0.88789962  0.17073530    -0.35300
C255        C  0.45293901  0.87153768  0.20949191     0.00900
C256        C  0.46420218  0.90274061  0.23718177     0.06900
C257        C  0.48052449  0.93810962  0.21297260    -0.06200
H258        H  0.43748404  0.83869456  0.21673518     0.07600
H259        H  0.49164613  0.96848981  0.22350551     0.08800
Cu260      Cu  0.44699142  0.85518263  0.11524940     0.44200
Cu261      Cu  0.49490965  0.96629385  0.12177582     0.42000
Cu262      Cu  0.47092245  0.91606210  0.02193659     0.43900
N263        N  0.42939326  0.82856860  0.05590712    -0.34800
N264        N  0.43894620  0.85121389  0.02192713    -0.29100
C265        C  0.42091969  0.82436099  0.98884514    -0.05200
C266        C  0.39863220  0.78259690  0.00258132     0.07000
C267        C  0.40477648  0.78653598  0.04532975     0.00800
H268        H  0.42244185  0.83437795  0.95740545     0.08500
H269        H  0.39157151  0.76074177  0.06740134     0.07600
N270        N  0.49312750  0.97670790  0.02967473    -0.36300
N271        N  0.50189929  0.99525939  0.06641656    -0.28500
C272        C  0.51134270  0.03221278  0.06139591    -0.03700
C273        C  0.50807038  0.03688026  0.01947102     0.04900
C274        C  0.49662920  0.00123230  0.00025361     0.03000
H275        H  0.51810272  0.05297714  0.08659881     0.08100
H276        H  0.48948202  0.99266356  0.96758365     0.06900
N277        N  0.50359995  0.15663810  0.84787004    -0.27400
N278        N  0.51557026  0.19459309  0.84833286    -0.35300
C279        C  0.51326017  0.20435477  0.80934344     0.00900
C280        C  0.49905767  0.17078048  0.78332764     0.06900
C281        C  0.49313992  0.14108720  0.80879190    -0.06200
H282        H  0.52232177  0.23413325  0.80051953     0.07600
H283        H  0.48351580  0.11112494  0.79947491     0.08800
Cu284      Cu  0.53647492  0.23185069  0.90174488     0.44200
Cu285      Cu  0.50505512  0.12872799  0.89915486     0.42000
Cu286      Cu  0.53494617  0.18368392  0.99667337     0.46300
N287        N  0.55582774  0.26136144  0.95979624    -0.34800
N288        N  0.55408353  0.24324586  0.99416253    -0.29100
C289        C  0.56965257  0.27104413  0.02609156    -0.05200
C290        C  0.58213321  0.30864196  0.01112534     0.07000
C291        C  0.57292232  0.30139779  0.96895216     0.00800
H292        H  0.57311796  0.26483905  0.05754889     0.08500
H293        H  0.57854347  0.32358136  0.94640232     0.07600
N294        N  0.52103470  0.12711937  0.98973597    -0.36300
N295        N  0.51046798  0.10719244  0.95350877    -0.28500
C296        C  0.50457611  0.07231875  0.95845997    -0.03700
C297        C  0.51177090  0.07021496  0.99985876     0.04900
C298        C  0.52209623  0.10540984  0.01886623     0.03000
H299        H  0.49560665  0.05014213  0.93372425     0.08100
H300        H  0.52993518  0.11468094  0.05134847     0.06900
C301        C  0.62877908  0.39468296  0.09629722     0.86300
C302        C  0.60303552  0.34944036  0.07730002    -0.53900
C303        C  0.60332609  0.34875653  0.03492756     0.09300
C304        C  0.62896886  0.39358418  0.01487632     0.20200
C305        C  0.67473347  0.42525055  0.07680195    -0.54600
C306        C  0.67495470  0.42410536  0.03431443     0.09400
C307        C  0.60850447  0.40966322  0.07574507    -0.54200
C308        C  0.60852335  0.40893790  0.03313874     0.09900
H309        H  0.58617192  0.32040217  0.09617727     0.14500
H310        H  0.62917980  0.39274993  0.98046573     0.00200
H311        H  0.70446021  0.44554208  0.09535697     0.14800
H312        H  0.59602778  0.42084577  0.09235156     0.14500
N313        N  0.86731173  0.52882106  0.84473968    -0.27400
N314        N  0.82623631  0.50973305  0.84441686    -0.35300
C315        C  0.81242637  0.50180429  0.80462223     0.00900
C316        C  0.84645067  0.51633109  0.77898934     0.06900
C317        C  0.88068209  0.53336903  0.80547023    -0.06200
H318        H  0.77950410  0.48484856  0.79523826     0.07600
H319        H  0.91247405  0.54654126  0.79702948     0.08800
Cu320      Cu  0.79012542  0.49147665  0.89853931     0.44200
Cu321      Cu  0.90265817  0.54396513  0.89791281     0.42000
Cu322      Cu  0.84803865  0.51395984  0.99555433     0.43900
N323        N  0.76229402  0.47503960  0.95756150    -0.34800
N324        N  0.78364262  0.48382137  0.99244756    -0.29100
C325        C  0.75629051  0.46812673  0.02485458    -0.05200
C326        C  0.71559773  0.44828190  0.00983251     0.07000
C327        C  0.72061869  0.45324979  0.96697901     0.00800
H328        H  0.76521085  0.46988039  0.05690267     0.08500
H329        H  0.69581721  0.44147459  0.94413915     0.07600
N330        N  0.91121387  0.54120145  0.99019882    -0.36300
N331        N  0.93122446  0.55231827  0.95394742    -0.28500
C332        C  0.97065972  0.56691419  0.95989792    -0.03700
C333        C  0.97570946  0.56481013  0.00197663     0.04900
C334        C  0.93745344  0.54843414  0.02035999     0.03000
H335        H  0.99334564  0.57703915  0.93520778     0.08100
H336        H  0.92877137  0.54112469  0.05298457     0.06900
C337        C  0.65901416  0.42249103  0.30082382    -0.11500
C338        C  0.62947542  0.38403086  0.27752469     0.15000
C339        C  0.60177907  0.34331788  0.29774750     0.01900
C340        C  0.60388651  0.34176335  0.34096855    -0.15900
C341        C  0.63261496  0.38022828  0.36538481    -0.10700
C342        C  0.66090643  0.42130243  0.34431684     0.08600
C343        C  0.62920676  0.38741317  0.23190518     0.09700
S344        S  0.56260572  0.29196738  0.27015116    -0.25000
H345        H  0.58149368  0.30970751  0.35457954     0.19900
S346        S  0.69949602  0.47293336  0.37197970    -0.30700
H347        H  0.68055954  0.45356429  0.28464008     0.10200
C348        C  0.60733630  0.39689572  0.21267377     0.03400
C349        C  0.60787887  0.39978531  0.16918361    -0.13000
C350        C  0.62957986  0.39289162  0.14402184    -0.08700
C351        C  0.65023908  0.38169778  0.16416154     0.06900
C352        C  0.65023459  0.37979379  0.20768104    -0.13800
S353        S  0.57714247  0.40348703  0.24367134    -0.30700
H354        H  0.59004850  0.40624259  0.15560104     0.11100
S355        S  0.67564227  0.36810111  0.13529169    -0.27800
H356        H  0.66608162  0.37159477  0.22319159     0.08400
H357        H  0.71289446  0.50053762  0.33788839     0.26800
H358        H  0.55894093  0.40756984  0.21036487     0.21600
H359        H  0.69265795  0.36358046  0.16950049     0.26900
H360        H  0.55334999  0.30703165  0.23847625     0.15800
C361        C  0.30672471  0.64876296  0.80335920    -0.11500
C362        C  0.33672972  0.68638145  0.77915831     0.15000
C363        C  0.36735352  0.72755645  0.79854637     0.01900
C364        C  0.36682312  0.73049633  0.84174510    -0.15900
C365        C  0.33696973  0.69291493  0.86693112    -0.10700
C366        C  0.30678272  0.65124421  0.84685825     0.08600
C367        C  0.33504361  0.68185083  0.73355184     0.09700
S368        S  0.40869001  0.77762559  0.76984341    -0.25000
H369        H  0.39148317  0.76279386  0.85482968     0.19900
S370        S  0.26854293  0.60045142  0.87582714    -0.30700
H371        H  0.28345052  0.61730075  0.78786458     0.10200
C372        C  0.35018729  0.66544360  0.71383311     0.03400
C373        C  0.35030099  0.66400265  0.67033522    -0.13000
C374        C  0.33528767  0.67844986  0.64553108    -0.08700
C375        C  0.31831779  0.69329104  0.66624037     0.06900
C376        C  0.31883641  0.69508497  0.70980119    -0.13800
S377        S  0.37112666  0.64797335  0.74416028    -0.30700
H378        H  0.36267172  0.65167300  0.65667070     0.11100
S379        S  0.29614921  0.71067010  0.63806461    -0.27800
H380        H  0.30697706  0.70731584  0.72570745     0.08400
H381        H  0.25027896  0.57158957  0.84179043     0.26800
H382        H  0.37607383  0.63033271  0.71101468     0.21600
H383        H  0.27942774  0.71518106  0.67260217     0.26900
H384        H  0.41472683  0.75924259  0.73873728     0.15800
loop_ 
_geom_bond_atom_site_label_1 
_geom_bond_atom_site_label_2 
_geom_bond_distance 
_geom_bond_site_symmetry_2 
_ccdc_geom_bond_type 
N1            N2   1.322       .  A
N1            C5   1.342       .  A
N1           Cu9   2.065       .  S
N2            C3   1.346       .  A
N2           Cu8   2.075       .  S
C3            C4   1.383       .  A
C3            H6   1.082       .  S
C4            C5   1.380       .  A
C4          C232   1.468       .  S
C5            H7   1.082       .  S
Cu8          N11   2.075       .  S
Cu9          N19   2.065       .  S
Cu10         N12   2.065       .  S
Cu10         N18   2.064       .  S
N11          N12   1.322       .  A
N11          C15   1.345       .  A
N12          C13   1.342       .  A
C13          C14   1.383       .  A
C13          H16   1.081       .  S
C14          C15   1.386       .  A
C14          C30   1.478       .  S
C15          H17   1.081       .  S
N18          N19   1.321       .  A
N18          C22   1.345       .  A
N19          C20   1.343   1_455  A
C20          C21   1.382       .  A
C20          H23   1.082       .  S
C21          C22   1.382   1_655  A
C21          C81   1.468       .  S
C22          H24   1.082       .  S
C25          C26   1.538       .  S
C25          C31   1.547       .  S
C25          C29   1.536       .  S
C25         C374   1.536       .  S
C26          H33   1.086       .  S
C26          C27   1.365       .  D
C27         C134   1.479       .  S
C27          C28   1.535       .  S
C28          C32   1.535       .  S
C28          C30   1.536       .  S
C28          H34   1.105       .  S
C29          H35   1.085       .  S
C29          C30   1.364       .  D
C31          H36   1.078       .  S
C31          C32   1.364       .  D
C32          C50   1.477       .  S
N37          N38   1.320       .  A
N37          C41   1.338       .  A
N37         Cu45   2.047       .  S
N38          C39   1.343       .  A
N38         Cu44   2.057       .  S
C39          C40   1.381       .  A
C39          H42   1.082       .  S
C40          C41   1.378       .  A
C40         C196   1.459       .  S
C41          H43   1.082       .  S
Cu44         N47   2.057       .  S
Cu45         N55   2.047       .  S
Cu46         N48   2.072       .  S
Cu46         N54   2.072       .  S
N47          N48   1.321       .  A
N47          C51   1.342       .  A
N48          C49   1.343       .  A
C49          C50   1.386       .  A
C49          H52   1.081       .  S
C50          C51   1.382       .  A
C51          H53   1.081       .  S
N54          N55   1.321       .  A
N54          C58   1.343       .  A
N55          C56   1.342       .  A
C56          C57   1.378       .  A
C56          H59   1.082       .  S
C57          C58   1.384       .  A
C57         C105   1.464       .  S
C58          H60   1.082       .  S
N61          N62   1.323       .  A
N61          C65   1.343       .  A
N61         Cu69   2.074       .  S
N62          C63   1.346       .  A
N62         Cu68   2.072       .  S
C63          C64   1.383       .  A
C63          H66   1.082       .  S
C64          C65   1.382       .  A
C64         C316   1.469       .  S
C65          H67   1.082       .  S
Cu68         N71   2.072       .  S
Cu69         N79   2.073       .  S
Cu70         N72   2.062       .  S
Cu70         N78   2.061       .  S
N71          N72   1.321       .  A
N71          C75   1.344       .  A
N72          C73   1.343       .  A
C73          C74   1.383       .  A
C73          H76   1.081       .  S
C74          C75   1.385       .  A
C74         C111   1.477       .  S
C75          H77   1.081       .  S
N78          N79   1.321       .  A
N78          C82   1.342       .  A
N79          C80   1.346       .  A
C80          C81   1.384       .  A
C80          H83   1.082       .  S
C81          C82   1.381       .  A
C82          H84   1.082       .  S
N85          N86   1.319       .  A
N85          C89   1.338       .  A
N85         Cu93   2.039       .  S
N86          C87   1.345       .  A
N86         Cu92   2.063       .  S
C87          C88   1.383       .  A
C87          H90   1.082       .  S
C88          C89   1.377       .  A
C88         C172   1.460       .  S
C89          H91   1.082       .  S
Cu92         N95   2.064       .  S
Cu93        N103   2.039       .  S
Cu94         N96   2.079       .  S
Cu94        N102   2.077       .  S
N95          N96   1.323       .  A
N95          C99   1.342       .  A
N96          C97   1.343       .  A
C97          C98   1.386       .  A
C97         H100   1.081       .  S
C98          C99   1.381       .  A
C98         C116   1.477       .  S
C99         H101   1.081       .  S
N102        N103   1.320       .  A
N102        C106   1.346       .  A
N103        C104   1.339       .  A
C104        C105   1.376       .  A
C104        H107   1.082       .  S
C105        C106   1.386       .  A
C106        H108   1.082       .  S
C109        C110   1.537       .  S
C109        C115   1.535       .  S
C109        C113   1.549       .  S
C109        C341   1.537       .  S
C110        H117   1.085       .  S
C110        C111   1.366       .  D
C111        C112   1.536       .  S
C112        C116   1.536       .  S
C112        C114   1.533       .  S
C112        H118   1.105       .  S
C113        H119   1.077       .  S
C113        C114   1.366       .  D
C114        C158   1.480       .  S
C115        H120   1.085       .  S
C115        C116   1.362       .  D
N121        N122   1.322       .  A
N121        C125   1.341       .  A
N121       Cu129   2.056       .  S
N122        C123   1.347       .  A
N122       Cu128   2.081       .  S
C123        C124   1.385       .  A
C123        H126   1.082       .  S
C124        C125   1.379       .  A
C124        C256   1.468       .  S
C125        H127   1.082       .  S
Cu128       N131   2.082       .  S
Cu129       N139   2.056       .  S
Cu130       N132   2.068       .  S
Cu130       N138   2.067       .  S
N131        N132   1.323       .  A
N131        C135   1.346       .  A
N132        C133   1.343       .  A
C133        C134   1.383       .  A
C133        H136   1.082       .  S
C134        C135   1.386       .  A
C135        H137   1.081       .  S
N138        N139   1.320       .  A
N138        C142   1.345       .  A
N139        C140   1.341       .  A
C140        C141   1.380   1_565  A
C140        H143   1.082   1_565  S
C141        C142   1.383   1_545  A
C141        C165   1.465       .  S
C142        H144   1.082       .  S
N145        N146   1.323       .  A
N145        C149   1.341       .  A
N145       Cu153   2.061       .  S
N146        C147   1.347       .  A
N146       Cu152   2.079       .  S
C147        C148   1.384       .  A
C147        H150   1.082       .  S
C148        C149   1.379       .  A
C148        C280   1.468       .  S
C149        H151   1.082       .  S
Cu152       N155   2.079       .  S
Cu153       N163   2.060       .  S
Cu154       N156   2.061       .  S
Cu154       N162   2.061       .  S
N155        N156   1.322       .  A
N155        C159   1.346       .  A
N156        C157   1.341       .  A
C157        C158   1.383       .  A
C157        H160   1.081       .  S
C158        C159   1.387       .  A
C159        H161   1.081       .  S
N162        N163   1.320       .  A
N162        C166   1.342       .  A
N163        C164   1.344       .  A
C164        C165   1.382       .  A
C164        H167   1.082       .  S
C165        C166   1.382       .  A
C166        H168   1.082       .  S
N169        N170   1.322       .  A
N169        C173   1.339       .  A
N169       Cu177   2.057       .  S
N170        C171   1.344       .  A
N170       Cu176   2.061       .  S
C171        C172   1.380       .  A
C171        H174   1.082       .  S
C172        C173   1.379       .  A
C173        H175   1.082       .  S
Cu176       N179   2.062       .  S
Cu177       N187   2.056       .  S
Cu178       N180   2.075       .  S
Cu178       N186   2.075       .  S
N179        N180   1.321       .  A
N179        C183   1.343       .  A
N180        C181   1.344   1_556  A
C181        C182   1.387       .  A
C181        H184   1.081       .  S
C182        C183   1.384   1_554  A
C182        C308   1.481       .  S
C183        H185   1.081       .  S
N186        N187   1.321       .  A
N186        C190   1.342   1_556  A
N187        C188   1.345       .  A
C188        C189   1.381       .  A
C188        H191   1.082       .  S
C189        C190   1.383   1_556  A
C189        C213   1.467   1_556  S
C190        H192   1.082       .  S
N193        N194   1.321       .  A
N193        C197   1.339       .  A
N193       Cu201   2.049       .  S
N194        C195   1.344       .  A
N194       Cu200   2.059       .  S
C195        C196   1.381       .  A
C195        H198   1.082       .  S
C196        C197   1.378       .  A
C197        H199   1.082       .  S
Cu200       N203   2.060       .  S
Cu201       N211   2.049       .  S
Cu202       N204   2.078       .  S
Cu202       N210   2.077       .  S
N203        N204   1.322       .  A
N203        C207   1.344       .  A
N204        C205   1.342   1_554  A
C205        C206   1.386       .  A
C205        H208   1.082       .  S
C206        C207   1.382   1_556  A
C206        C224   1.477       .  S
C207        H209   1.081       .  S
N210        N211   1.320       .  A
N210        C214   1.347   1_554  A
N211        C212   1.340       .  A
C212        C213   1.378       .  A
C212        H215   1.082       .  S
C213        C214   1.386   1_554  A
C214        H216   1.082       .  S
C217        C218   1.537       .  S
C217        C223   1.532       .  S
C217        C221   1.548       .  S
C217        C365   1.534       .  S
C218        H225   1.085       .  S
C218        C219   1.365       .  D
C219        C242   1.478   1_556  S
C219        C220   1.538       .  S
C220        C224   1.537       .  S
C220        C222   1.536       .  S
C220        H226   1.105   1_556  S
C221        H227   1.079       .  S
C221        C222   1.367       .  D
C222        C266   1.480   1_556  S
C223        H228   1.085       .  S
C223        C224   1.361       .  D
N229        N230   1.322       .  A
N229        C233   1.342       .  A
N229       Cu237   2.067       .  S
N230        C231   1.346       .  A
N230       Cu236   2.070       .  S
C231        C232   1.383       .  A
C231        H234   1.082       .  S
C232        C233   1.381       .  A
C233        H235   1.082       .  S
Cu236       N239   2.070       .  S
Cu237       N247   2.067       .  S
Cu238       N240   2.070       .  S
Cu238       N246   2.070       .  S
N239        N240   1.322       .  A
N239        C243   1.344       .  A
N240        C241   1.343   1_554  A
C241        C242   1.385   1_556  A
C241        H244   1.082       .  S
C242        C243   1.384       .  A
C243        H245   1.081       .  S
N246        N247   1.321       .  A
N246        C250   1.343       .  A
N247        C248   1.345       .  A
C248        C249   1.383       .  A
C248        H251   1.082   1_455  S
C249        C250   1.383       .  A
C249        C333   1.469   1_455  S
C250        H252   1.082   1_554  S
N253        N254   1.323       .  A
N253        C257   1.343       .  A
N253       Cu261   2.069       .  S
N254        C255   1.346       .  A
N254       Cu260   2.071       .  S
C255        C256   1.382       .  A
C255        H258   1.082       .  S
C256        C257   1.382       .  A
C257        H259   1.082       .  S
Cu260       N263   2.071       .  S
Cu261       N271   2.068       .  S
Cu262       N264   2.067       .  S
Cu262       N270   2.066       .  S
N263        N264   1.321       .  A
N263        C267   1.345       .  A
N264        C265   1.342   1_554  A
C265        C266   1.385   1_556  A
C265        H268   1.081       .  S
C266        C267   1.385       .  A
C267        H269   1.081       .  S
N270        N271   1.321       .  A
N270        C274   1.343   1_565  A
N271        C272   1.345   1_565  A
C272        C273   1.383       .  A
C272        H275   1.082       .  S
C273        C274   1.382       .  A
C273        C297   1.468   1_554  S
C274        H276   1.082   1_544  S
N277        N278   1.322       .  A
N277        C281   1.341       .  A
N277       Cu285   2.065       .  S
N278        C279   1.346       .  A
N278       Cu284   2.070       .  S
C279        C280   1.383       .  A
C279        H282   1.082       .  S
C280        C281   1.381       .  A
C281        H283   1.082       .  S
Cu284       N287   2.071       .  S
Cu285       N295   2.064       .  S
Cu286       N288   2.068       .  S
Cu286       N294   2.068       .  S
N287        N288   1.322       .  A
N287        C291   1.345       .  A
N288        C289   1.342   1_556  A
C289        C290   1.383       .  A
C289        H292   1.081       .  S
C290        C291   1.383   1_554  A
C290        C303   1.475       .  S
C291        H293   1.081       .  S
N294        N295   1.321       .  A
N294        C298   1.345   1_556  A
N295        C296   1.343       .  A
C296        C297   1.382       .  A
C296        H299   1.082       .  S
C297        C298   1.383   1_556  A
C298        H300   1.082       .  S
C301        C302   1.533       .  S
C301        C307   1.548       .  S
C301        C305   1.538       .  S
C301        C350   1.536       .  S
C302        H309   1.086       .  S
C302        C303   1.361       .  D
C303        C304   1.535       .  S
C304        C308   1.538       .  S
C304        C306   1.537       .  S
C304        H310   1.106   1_554  S
C305        H311   1.085       .  S
C305        C306   1.365       .  D
C306        C326   1.481       .  S
C307        H312   1.079       .  S
C307        C308   1.368       .  D
N313        N314   1.322       .  A
N313        C317   1.342       .  A
N313       Cu321   2.061       .  S
N314        C315   1.347       .  A
N314       Cu320   2.081       .  S
C315        C316   1.385       .  A
C315        H318   1.082       .  S
C316        C317   1.380       .  A
C317        H319   1.082       .  S
Cu320       N323   2.081       .  S
Cu321       N331   2.061       .  S
Cu322       N324   2.072       .  S
Cu322       N330   2.071       .  S
N323        N324   1.323       .  A
N323        C327   1.347       .  A
N324        C325   1.343   1_556  A
C325        C326   1.384       .  A
C325        H328   1.082       .  S
C326        C327   1.386   1_554  A
C327        H329   1.081       .  S
N330        N331   1.321       .  A
N330        C334   1.346   1_556  A
N331        C332   1.343       .  A
C332        C333   1.381   1_556  A
C332        H335   1.082       .  S
C333        C334   1.384       .  A
C334        H336   1.082       .  S
C337        C338   1.396       .  A
C337        C342   1.402       .  A
C337        H347   1.083       .  S
C338        C339   1.404       .  A
C338        C343   1.473       .  S
C339        C340   1.395       .  A
C339        S344   1.806       .  S
C340        C341   1.414       .  A
C340        H345   1.073       .  S
C341        C342   1.426       .  A
C342        S346   1.812       .  S
C343        C348   1.403       .  A
C343        C352   1.394       .  A
S344        H360   1.405       .  S
S346        H357   1.406       .  S
C348        C349   1.401       .  A
C348        S353   1.808       .  S
C349        C350   1.413       .  A
C349        H354   1.074       .  S
C350        C351   1.428       .  A
C351        C352   1.400       .  A
C351        S355   1.813       .  S
C352        H356   1.083       .  S
S353        H358   1.407       .  S
S355        H359   1.406       .  S
C361        C362   1.396       .  A
C361        C366   1.400       .  A
C361        H371   1.083       .  S
C362        C363   1.405       .  A
C362        C367   1.472       .  S
C363        C364   1.394       .  A
C363        S368   1.805       .  S
C364        C365   1.412       .  A
C364        H369   1.075       .  S
C365        C366   1.427       .  A
C366        S370   1.813       .  S
C367        C372   1.402       .  A
C367        C376   1.395       .  A
S368        H384   1.406       .  S
S370        H381   1.406       .  S
C372        C373   1.398       .  A
C372        S377   1.809       .  S
C373        C374   1.414       .  A
C373        H378   1.073       .  S
C374        C375   1.426       .  A
C375        C376   1.400       .  A
C375        S379   1.812       .  S
C376        H380   1.083       .  S
S377        H382   1.407       .  S
S379        H383   1.407       .  S
