geometry optimzed in LAMMPS
_audit_creation_date              2020-12-01 
_audit_creation_method            'lammps2cif' 
_symmetry_space_group_name_H-M    'P1' 
_symmetry_Int_Tables_number       1 
_symmetry_cell_setting            triclinic 
loop_ 
_symmetry_equiv_pos_as_xyz 
  x,y,z 
_cell_length_a                    26.66720064 
_cell_length_b                    26.2412685089738 
_cell_length_c                    30.020336137235013 
_cell_angle_alpha                 89.99175457135226 
_cell_angle_beta                  88.16459263614536 
_cell_angle_gamma                 90.00669175369289 
loop_ 
_atom_site_label 
_atom_site_type_symbol 
_atom_site_fract_x 
_atom_site_fract_y 
_atom_site_fract_z 
_atom_site_charge 
O1          O  0.40574605  0.38880871  0.44099393    -0.73500
O2          O  0.44985604  0.43588534  0.38893692    -0.52400
C3          C  0.41927978  0.40000103  0.40059098     0.80200
O4          O  0.38927955  0.59855047  0.58764116    -0.58100
O5          O  0.43077968  0.55530246  0.64140390    -0.51100
C6          C  0.39881184  0.58820447  0.62840524     0.72200
O7          O  0.39718599  0.59622117  0.43735892    -0.72700
O8          O  0.44536201  0.55135615  0.38670242    -0.53200
C9          C  0.41193512  0.58497374  0.39730299     0.78200
O10         O  0.39368627  0.39515260  0.59130398    -0.57800
O11         O  0.43344463  0.44243438  0.64354262    -0.50900
C12         C  0.40243711  0.40777802  0.63176014     0.74800
Zr13       Zr  0.42277153  0.41930927  0.51613582     2.54700
O14         O  0.33182306  0.41541782  0.51232662    -0.78400
O15         O  0.43117160  0.32716223  0.52202151    -0.91800
Zr16       Zr  0.41634717  0.57011530  0.51324464     2.64700
O17         O  0.32568247  0.55952069  0.51243034    -0.96700
O18         O  0.40993264  0.66260855  0.51125698    -0.78800
O19         O  0.42070973  0.49375134  0.47095479    -0.82200
O20         O  0.41603128  0.49572724  0.55813668    -2.16900
O21         O  0.59018073  0.40034049  0.59475398    -0.65600
O22         O  0.54292690  0.44558917  0.64576299    -0.50100
C23         C  0.57620449  0.41195655  0.63485269     0.73200
O24         O  0.59418781  0.60199515  0.44169067    -0.58500
O25         O  0.55506832  0.55457420  0.38918752    -0.50400
C26         C  0.58568187  0.58953912  0.40122196     0.75000
O27         O  0.58022183  0.60899525  0.59057371    -0.69900
O28         O  0.53732180  0.56184656  0.64322099    -0.48500
C29         C  0.56700873  0.59826471  0.63099494     0.76400
O30         O  0.60012415  0.39903105  0.44521017    -0.65200
O31         O  0.55854598  0.44170243  0.39114853    -0.52400
C32         C  0.59082178  0.40915689  0.40444279     0.74800
Zr33       Zr  0.57130224  0.42618552  0.51907895     2.77500
O34         O  0.66226302  0.43396727  0.52011444    -0.95900
O35         O  0.57531721  0.33347292  0.51942695    -0.76800
Zr36       Zr  0.56530517  0.57663704  0.51624272     2.70100
O37         O  0.65643327  0.57500651  0.51954669    -0.78000
O38         O  0.56224401  0.66929353  0.51240760    -0.97100
Zr39       Zr  0.49897894  0.49677210  0.43022277     2.21500
Zr40       Zr  0.48916249  0.49981817  0.60206986     2.11100
O41         O  0.56737031  0.50245338  0.56135310    -2.45800
O42         O  0.57195265  0.50052181  0.47397864    -0.77800
O43         O  0.49448571  0.42245131  0.56086590    -0.70000
O44         O  0.49345048  0.57394384  0.47189101    -2.30900
O45         O  0.49970103  0.42121023  0.47451939    -2.27200
O46         O  0.48817815  0.57513526  0.55775166    -0.71800
H47         H  0.38584300  0.49507046  0.57674940     0.80200
H48         H  0.49362749  0.60334039  0.45251438     0.81300
H49         H  0.59506691  0.50415324  0.58124240     0.83600
H50         H  0.50222466  0.39114619  0.45604784     0.81200
H51         H  0.43658623  0.67465068  0.53091512     0.44200
H52         H  0.53645999  0.67930479  0.53521167     0.43200
H53         H  0.66339817  0.56259672  0.54987190     0.42800
H54         H  0.67038025  0.46186251  0.49886889     0.40800
H55         H  0.55261636  0.32294856  0.54451024     0.43900
H56         H  0.45978212  0.31844479  0.50161050     0.38700
H57         H  0.32144661  0.45109168  0.50721945     0.44800
H58         H  0.31246917  0.59469916  0.51067048     0.41200
H59         H  0.66916546  0.44851489  0.54971758     0.46100
H60         H  0.40137382  0.31334263  0.50731772     0.44900
H61         H  0.31928887  0.54456733  0.48286950     0.45000
H62         H  0.59438960  0.68081150  0.52461769     0.45400
C63         C  0.63427641  0.69262268  0.72015253     0.88300
C64         C  0.66941642  0.66366920  0.75081584    -0.52000
C65         C  0.69522458  0.69499475  0.77808269     0.11200
C66         C  0.68352243  0.75171528  0.77270766     0.22100
C67         C  0.60018319  0.72461538  0.75142027    -0.52700
C68         C  0.62621073  0.75547176  0.77904428     0.11300
C69         C  0.66844517  0.73117417  0.69521847    -0.52200
C70         C  0.69456659  0.76176939  0.72303917     0.11900
H71         H  0.67480178  0.62263379  0.74984984     0.16400
H72         H  0.70481386  0.77677383  0.79523676     0.02100
H73         H  0.55947869  0.72248760  0.75213014     0.16700
H74         H  0.67383939  0.73195710  0.65919839     0.16500
C75         C  0.65009446  0.32507919  0.72567084     0.88300
C76         C  0.61693337  0.29247413  0.75729511    -0.52000
C77         C  0.64380448  0.26161621  0.78428533     0.11200
C78         C  0.70094463  0.26593908  0.77707013     0.22100
C79         C  0.68558795  0.35411255  0.75604657    -0.52700
C80         C  0.71220409  0.32280231  0.78283699     0.11300
C81         C  0.68393684  0.28693768  0.70000679    -0.52200
C82         C  0.71067483  0.25617129  0.72714505     0.11900
H83         H  0.57620386  0.29410852  0.75860766     0.16400
H84         H  0.72280686  0.24077267  0.79906364     0.02100
H85         H  0.68985197  0.39528604  0.75586895     0.16700
H86         H  0.68752888  0.28546272  0.66387371     0.16500
C87         C  0.32141735  0.67425110  0.72097251     0.88300
C88         C  0.35550561  0.70572179  0.75055947    -0.52000
C89         C  0.32958556  0.73714279  0.77912005     0.11200
C90         C  0.27231099  0.73415263  0.77560794     0.22100
C91         C  0.28532766  0.64576973  0.75322501    -0.52700
C92         C  0.25946378  0.67755555  0.78167145     0.11300
C93         C  0.28852429  0.71324339  0.69746201    -0.52200
C94         C  0.26269071  0.74430849  0.72635451     0.11900
H95         H  0.39622593  0.70375734  0.74878588     0.16400
H96         H  0.25111610  0.75982717  0.79888389     0.02100
H97         H  0.27938637  0.60482445  0.75247391     0.16700
H98         H  0.28452060  0.71480423  0.66157527     0.16500
C99         C  0.32480270  0.32368890  0.72690864     0.88300
C100        C  0.29073216  0.35388886  0.75964416    -0.52000
C101        C  0.26507772  0.32360967  0.78951856     0.11200
C102        C  0.27607257  0.26651263  0.78433151     0.22100
C103        C  0.35909554  0.29194511  0.75619105    -0.52700
C104        C  0.33344392  0.26201179  0.78623580     0.11300
C105        C  0.28974729  0.28491896  0.70535594    -0.52200
C106        C  0.26410397  0.25524138  0.73569204     0.11900
H107        H  0.28590880  0.39496097  0.75824147     0.16400
H108        H  0.25510044  0.24212314  0.80882579     0.02100
H109        H  0.39980605  0.29285009  0.75328565     0.16700
H110        H  0.28447393  0.28236820  0.66968890     0.16500
N111        N  0.98672713  0.92106173  0.68114830    -0.34800
N112        N  0.06330638  0.99938296  0.68998761    -0.55400
N113        N  0.98776543  0.07831609  0.68375340    -0.34800
N114        N  0.91129767  0.00011342  0.67713539    -0.55400
C115        C  0.02597192  0.89299497  0.69456102     0.28800
C116        C  0.94455809  0.89360034  0.68991489     0.28800
C117        C  0.02699247  0.10626812  0.69761609     0.28800
C118        C  0.94578312  0.10662637  0.69054615     0.28800
C119        C  0.09322277  0.95813950  0.68494313     0.37400
C120        C  0.09376905  0.04052057  0.68790749     0.37400
C121        C  0.88262328  0.95908094  0.66851955     0.37400
C122        C  0.88310207  0.04156931  0.66882783     0.37400
C123        C  0.00874122  0.84677307  0.71145919    -0.20100
C124        C  0.95725488  0.84723721  0.70868643    -0.20100
C125        C  0.00988240  0.15337915  0.71250323    -0.20100
C126        C  0.95863325  0.15358511  0.70810703    -0.20100
C127        C  0.14297037  0.97313229  0.67976006    -0.21200
C128        C  0.14332026  0.02532820  0.68179410    -0.21200
C129        C  0.83613121  0.97451149  0.65410983    -0.21200
C130        C  0.83642822  0.02681164  0.65432774    -0.21200
C131        C  0.07690688  0.90730966  0.69004784    -0.16500
C132        C  0.89538377  0.90859669  0.67946658    -0.16500
C133        C  0.89660578  0.09194682  0.67960558    -0.16500
C134        C  0.07793071  0.09119370  0.69526383    -0.16500
H135        H  0.03095055  0.81596748  0.72447743     0.16400
H136        H  0.93210215  0.81677049  0.71900115     0.16400
H137        H  0.03201544  0.18443727  0.72516695     0.16400
H138        H  0.93372605  0.18487887  0.71670521     0.16400
H139        H  0.17575656  0.94897812  0.67622115     0.14700
H140        H  0.17637286  0.04926990  0.67984959     0.14700
H141        H  0.80463353  0.95061864  0.64595773     0.14700
H142        H  0.80522536  0.05115824  0.64631217     0.14700
H143        H  0.98922505  0.95470038  0.66288898     0.27900
H144        H  0.99009618  0.04404124  0.66651777     0.27900
C145        C  0.66068023  0.67786570  0.30758772     0.88300
C146        C  0.62505933  0.71242344  0.28207798    -0.52000
C147        C  0.64926288  0.74310464  0.25169945     0.11200
C148        C  0.70653727  0.73661776  0.24962887     0.22100
C149        C  0.69078759  0.64849932  0.27149645    -0.52700
C150        C  0.71482008  0.67953710  0.24129165     0.11300
C151        C  0.69884469  0.71417373  0.32830802    -0.52200
C152        C  0.72290265  0.74482016  0.29764984     0.11900
H153        H  0.58453729  0.71223455  0.28719380     0.16400
H154        H  0.72619803  0.76158793  0.22475424     0.02100
H155        H  0.69336532  0.60719843  0.27025539     0.16700
H156        H  0.70684928  0.71475784  0.36355800     0.16500
C157        C  0.34797458  0.66658378  0.29630945     0.88300
C158        C  0.30496172  0.70159692  0.31257355    -0.52000
C159        C  0.28250499  0.72698439  0.27885877     0.11200
C160        C  0.30486083  0.71506815  0.23219813     0.22100
C161        C  0.32470413  0.63141396  0.26191006    -0.52700
C162        C  0.30224764  0.65685036  0.22836586     0.11300
C163        C  0.38398179  0.70134580  0.26911647    -0.52200
C164        C  0.36108797  0.72666161  0.23552707     0.11900
H165        H  0.29341900  0.70594030  0.34740053     0.16400
H166        H  0.28642910  0.73564429  0.20478876     0.02100
H167        H  0.32608515  0.59006890  0.26375290     0.16700
H168        H  0.42360213  0.70542369  0.27569089     0.16500
N169        N  0.95314169  0.57257229  0.05206768    -0.34800
N170        N  0.03670736  0.58553230  0.98926005    -0.55400
N171        N  0.97121522  0.63632759  0.92917544    -0.34800
N172        N  0.88870437  0.62666100  0.99412913    -0.55400
C173        C  0.99123327  0.55238776  0.07462483     0.28800
C174        C  0.91845215  0.58915553  0.08261405     0.28800
C175        C  0.01366955  0.63482032  0.90324207     0.28800
C176        C  0.93226632  0.64426272  0.90209706     0.28800
C177        C  0.05977964  0.55635848  0.01939740     0.37400
C178        C  0.07229015  0.60019765  0.95898483     0.37400
C179        C  0.85711721  0.62451214  0.02999934     0.37400
C180        C  0.86164367  0.64168376  0.95945642     0.37400
C181        C  0.98099144  0.55541950  0.11996533    -0.20100
C182        C  0.93499178  0.57892635  0.12512222    -0.20100
C183        C  0.00190110  0.64410802  0.85931123    -0.19400
C184        C  0.95057918  0.64950852  0.85851144    -0.20100
C185        C  0.11069639  0.55375796  0.00929105    -0.21200
C186        C  0.11879439  0.58201476  0.97118635    -0.21200
C187        C  0.80934863  0.63909992  0.01835002    -0.21200
C188        C  0.81204320  0.64936341  0.97343204    -0.21200
C189        C  0.03441133  0.53013005  0.05453882    -0.16500
C190        C  0.87146322  0.61097650  0.07317930    -0.16500
C191        C  0.88076324  0.64739361  0.91533491    -0.16500
C192        C  0.06252068  0.62385641  0.91785621    -0.16500
H193        H  0.00472779  0.54310792  0.14645593     0.16400
H194        H  0.91580633  0.58722921  0.15659856     0.16400
H195        H  0.02743249  0.64527651  0.83056422     0.16400
H196        H  0.92919368  0.65638347  0.82906204     0.16400
H197        H  0.13896472  0.53371745  0.02750056     0.14700
H198        H  0.15444512  0.58648899  0.95336690     0.14700
H199        H  0.77601330  0.64147751  0.03978339     0.14700
H200        H  0.78110153  0.66146758  0.95349951     0.14700
H201        H  0.94959243  0.56959487  0.01778514     0.27900
H202        H  0.96973893  0.63539757  0.96368258     0.27900
C203        C  0.35893522  0.31337994  0.30113114     0.88300
C204        C  0.39607843  0.27867517  0.27526225    -0.52000
C205        C  0.37422169  0.25148152  0.24228068     0.11200
C206        C  0.31774281  0.26120650  0.23823553     0.22100
C207        C  0.33505512  0.34654584  0.26549515    -0.52700
C208        C  0.31349844  0.31905923  0.23263719     0.11300
C209        C  0.31666061  0.27792212  0.31814351    -0.52200
C210        C  0.29519092  0.25069170  0.28503486     0.11900
H211        H  0.43578527  0.27626794  0.28202235     0.16400
H212        H  0.30009487  0.23903228  0.21134214     0.02100
H213        H  0.33499919  0.38795560  0.26625035     0.16700
H214        H  0.30458737  0.27495383  0.35295638     0.16500
N215        N  0.93332488  0.99849654  0.31760591    -0.34800
N216        N  0.01303256  0.07443740  0.31545669    -0.55400
N217        N  0.08677352  0.99276556  0.30719708    -0.34800
N218        N  0.00718495  0.91669546  0.31369700    -0.55400
C219        C  0.90664059  0.04095084  0.32806645     0.28800
C220        C  0.90350159  0.95789306  0.32700210     0.28800
C221        C  0.11727881  0.03308657  0.31399174     0.28800
C222        C  0.11422672  0.94997851  0.31282061     0.28800
C223        C  0.97323544  0.10602612  0.31251590     0.37400
C224        C  0.05445899  0.10299085  0.30710224     0.37400
C225        C  0.96510388  0.88850513  0.30964578     0.37400
C226        C  0.04640324  0.88546051  0.30409826     0.37400
C227        C  0.85911438  0.02713117  0.34393359    -0.20100
C228        C  0.85714006  0.97479764  0.34326058    -0.20100
C229        C  0.16484285  0.01568005  0.32366096    -0.20100
C230        C  0.16292201  0.96331450  0.32291996    -0.20100
C231        C  0.98948052  0.15512184  0.30288132    -0.21200
C232        C  0.04095201  0.15320601  0.29946322    -0.21200
C233        C  0.97768253  0.83884928  0.29814310    -0.21200
C234        C  0.02917292  0.83691790  0.29463490    -0.21200
C235        C  0.92274540  0.09177939  0.32108624    -0.16500
C236        C  0.91571118  0.90625472  0.31853956    -0.16500
C237        C  0.09750363  0.89940557  0.30627893    -0.16500
C238        C  0.10430150  0.08503193  0.30901263    -0.16500
H239        H  0.82874527  0.05215886  0.35449976     0.16400
H240        H  0.82496575  0.95183503  0.35318360     0.16400
H241        H  0.19772960  0.03834512  0.33014452     0.16400
H242        H  0.19405393  0.93796088  0.32871870     0.16400
H243        H  0.96668284  0.18889309  0.29919539     0.14700
H244        H  0.06560515  0.18522557  0.29261556     0.14700
H245        H  0.95243314  0.80720957  0.29315646     0.14700
H246        H  0.05137666  0.80349259  0.28642892     0.14700
H247        H  0.96745315  0.99747299  0.30008952     0.27900
H248        H  0.05122353  0.99436974  0.29425753     0.27900
N249        N  0.42723705  0.91713728  0.00442523    -0.34800
N250        N  0.44220188  0.99235864  0.07396219    -0.55400
N251        N  0.43498483  0.07292541  0.00729702    -0.34800
N252        N  0.42584790  0.99750408  0.93698971    -0.55400
C253        C  0.43575648  0.88583027  0.03918151     0.28800
C254        C  0.42918396  0.88851642  0.96695577     0.28800
C255        C  0.44782194  0.10096311  0.04296045     0.28800
C256        C  0.43795490  0.10362880  0.97111234     0.28800
C257        C  0.43529024  0.95075281  0.10005119     0.37400
C258        C  0.44061872  0.03316001  0.10146908     0.37400
C259        C  0.41395594  0.95730531  0.91122879     0.37400
C260        C  0.41599809  0.03984914  0.91313287     0.37400
C261        C  0.44308159  0.83654747  0.02362962    -0.20100
C262        C  0.43910318  0.83825550  0.97806706    -0.20100
C263        C  0.45937981  0.15019339  0.02921695    -0.20100
C264        C  0.45314465  0.15187160  0.98388625    -0.20100
C265        C  0.43107193  0.96509762  0.14445174    -0.21200
C266        C  0.43444994  0.01721806  0.14535458    -0.21200
C267        C  0.39795815  0.97419128  0.87027358    -0.21200
C268        C  0.39913269  0.02642449  0.87151941    -0.21200
C269        C  0.43382785  0.89987070  0.08468841    -0.16500
C270        C  0.41801433  0.90554937  0.92367063    -0.16500
C271        C  0.42320363  0.09045479  0.92776815    -0.16500
C272        C  0.44521017  0.08460391  0.08788885    -0.16500
H273        H  0.45017146  0.80276437  0.04312895     0.16400
H274        H  0.44229535  0.80595447  0.95574200     0.16400
H275        H  0.47041328  0.18184794  0.04983450     0.16400
H276        H  0.45841154  0.18505789  0.96283944     0.16400
H277        H  0.42604617  0.94060823  0.17325597     0.14700
H278        H  0.43246926  0.04066387  0.17501007     0.14700
H279        H  0.38627244  0.95130736  0.84246551     0.14700
H280        H  0.38870537  0.05159462  0.84479675     0.14700
H281        H  0.41435024  0.95423773  0.00676441     0.27900
H282        H  0.41840252  0.03730496  0.00856424     0.27900
N283        N  0.90542629  0.38648093  0.00686624    -0.34800
N284        N  0.98182347  0.39145142  0.93586858    -0.55400
N285        N  0.05046933  0.44020125  0.99343606    -0.34800
N286        N  0.97218959  0.43175592  0.06711492    -0.55400
C287        C  0.87563070  0.38324345  0.97129050     0.28800
C288        C  0.87519227  0.39071265  0.04381768     0.28800
C289        C  0.08271691  0.41295124  0.96753857     0.28800
C290        C  0.07304671  0.44906179  0.03218103     0.28800
C291        C  0.94248572  0.38070393  0.91036607     0.37400
C292        C  0.02343918  0.39020940  0.90902597     0.37400
C293        C  0.94034318  0.41173426  0.09783807     0.37400
C294        C  0.01281203  0.44745247  0.08868013     0.37400
C295        C  0.82571580  0.38422907  0.98615737    -0.20100
C296        C  0.82548297  0.38849713  0.03188506    -0.20100
C297        C  0.12711587  0.40578451  0.98986411    -0.20100
C298        C  0.12042028  0.42789198  0.03152291    -0.20100
C299        C  0.95922683  0.37288813  0.86661127    -0.21200
C300        C  0.01064606  0.37837265  0.86588583    -0.21200
C301        C  0.96070022  0.41530030  0.13980165    -0.21200
C302        C  0.00721075  0.43816925  0.13382395    -0.21200
C303        C  0.89184006  0.37822432  0.92595138    -0.16500
C304        C  0.89164332  0.39557079  0.08798437    -0.16500
C305        C  0.05014914  0.47669353  0.06714996    -0.16500
C306        C  0.07272766  0.39577827  0.92423310    -0.16500
H307        H  0.79272218  0.38202677  0.96616830     0.16400
H308        H  0.79247524  0.39058049  0.05375008     0.16400
H309        H  0.16031769  0.38576609  0.97777635     0.16400
H310        H  0.14730749  0.42919851  0.05774709     0.16400
H311        H  0.93686078  0.36348202  0.83830146     0.14700
H312        H  0.03569457  0.37384942  0.83707550     0.14700
H313        H  0.94328623  0.40408107  0.17135389     0.14700
H314        H  0.03278122  0.44866064  0.15954540     0.14700
H315        H  0.94406081  0.38167041  0.00673275     0.27900
H316        H  0.01556330  0.45465024  0.98501209     0.27900
C317        C  0.67114196  0.32364029  0.31343240     0.88300
C318        C  0.70170383  0.35543445  0.27942643    -0.52000
C319        C  0.72850357  0.32643096  0.24958356     0.11200
C320        C  0.72228396  0.26880986  0.25616377     0.22100
C321        C  0.63839593  0.28850876  0.28571563    -0.52700
C322        C  0.66542553  0.25982334  0.25573129     0.11300
C323        C  0.70949817  0.28836522  0.33505266    -0.52200
C324        C  0.73631599  0.25977841  0.30468028     0.11900
H325        H  0.70260233  0.39683858  0.27930059     0.16400
H326        H  0.74423814  0.24546334  0.23155221     0.02100
H327        H  0.59775498  0.28666424  0.28928402     0.16700
H328        H  0.71541495  0.28678247  0.37066395     0.16500
N329        N  0.56991581  0.08335067  0.02607474    -0.34800
N330        N  0.56098347  0.00666524  0.95691650    -0.55400
N331        N  0.55636793  0.92634607  0.02413842    -0.34800
N332        N  0.56916566  0.00306225  0.09307455    -0.55400
C333        C  0.58079958  0.11193438  0.98946982     0.28800
C334        C  0.58467076  0.11008516  0.06190678     0.28800
C335        C  0.56304137  0.89805205  0.98667217     0.28800
C336        C  0.56727825  0.89615257  0.05913748     0.28800
C337        C  0.55765888  0.04892240  0.93140847     0.37400
C338        C  0.55103495  0.96660689  0.93031821     0.37400
C339        C  0.56887762  0.04393979  0.12045202     0.37400
C340        C  0.56272356  0.96167454  0.11941192     0.37400
C341        C  0.60163898  0.15786923  0.00232622    -0.20100
C342        C  0.60404844  0.15672432  0.04797697    -0.20100
C343        C  0.57660985  0.84885374  0.99817758    -0.20100
C344        C  0.57924201  0.84765108  0.04381542    -0.20100
C345        C  0.54517349  0.03565751  0.88846116    -0.21200
C346        C  0.54106558  0.98353381  0.88775085    -0.21200
C347        C  0.56197907  0.02846438  0.16438698    -0.21200
C348        C  0.55818955  0.97634563  0.16373643    -0.21200
C349        C  0.57093447  0.09853184  0.94495265    -0.16500
C350        C  0.57994421  0.09428924  0.10688660    -0.16500
C351        C  0.56605527  0.91074131  0.10455678    -0.16500
C352        C  0.55643819  0.91494659  0.94244444    -0.16500
H353        H  0.61386333  0.18907637  0.98105021     0.16400
H354        H  0.61856513  0.18686526  0.06852968     0.16400
H355        H  0.58414011  0.81706844  0.97599379     0.16400
H356        H  0.58923988  0.81478999  0.06342745     0.16400
H357        H  0.54069490  0.06080482  0.86028925     0.14700
H358        H  0.53276784  0.96061738  0.85893463     0.14700
H359        H  0.56102653  0.05214540  0.19391707     0.14700
H360        H  0.55362891  0.95195833  0.19266170     0.14700
H361        H  0.54932645  0.04979435  0.02694373     0.27900
H362        H  0.54131686  0.96278889  0.02597669     0.27900
C363        C  0.64243099  0.22469559  0.22574065    -0.16700
C364        C  0.62426243  0.19537728  0.19994232     0.07300
C365        C  0.60515884  0.16087072  0.16873261     0.09200
C366        C  0.59176104  0.13096287  0.14108028    -0.17600
C367        C  0.85608321  0.38643348  0.12434536    -0.16700
C368        C  0.82590081  0.37703590  0.15382758     0.07300
C369        C  0.79075095  0.36292125  0.18750882     0.09200
C370        C  0.76158523  0.34782960  0.21588000    -0.17600
C371        C  0.88478765  0.13142527  0.32311075    -0.16700
C372        C  0.85130547  0.16236055  0.32347039     0.07300
C373        C  0.81082176  0.19689365  0.32138248     0.09200
C374        C  0.77627063  0.22570635  0.31621091    -0.17600
C375        C  0.24427843  0.45707587  0.13500960    -0.16700
C376        C  0.25277053  0.41400030  0.14623645     0.07300
C377        C  0.26994292  0.37144068  0.16993855     0.09200
C378        C  0.28864727  0.34338305  0.19644896    -0.17600
C379        C  0.44327193  0.12335370  0.12235421    -0.16700
C380        C  0.43551592  0.15415911  0.15158026     0.07300
C381        C  0.41984873  0.18875128  0.18526239     0.09200
C382        C  0.40152720  0.21757221  0.21250550    -0.17600
C383        C  0.25403787  0.21586016  0.29304881    -0.16700
C384        C  0.21941885  0.18664930  0.29827943     0.07300
C385        C  0.17895451  0.15209861  0.30306543     0.09200
C386        C  0.14474999  0.12205882  0.30623489    -0.17600
C387        C  0.27919335  0.62996301  0.19256044    -0.16700
C388        C  0.26294185  0.59938598  0.16681710     0.07300
C389        C  0.24896137  0.55463699  0.14442420     0.09200
C390        C  0.24295448  0.51071862  0.13436277    -0.17600
C391        C  0.42807331  0.85963335  0.11770132    -0.16700
C392        C  0.41908568  0.82753878  0.14566167     0.07300
C393        C  0.40390078  0.79133552  0.17829861     0.09200
C394        C  0.38684103  0.76136259  0.20527106    -0.17600
C395        C  0.13533594  0.85964733  0.30192767    -0.16700
C396        C  0.16812828  0.82808007  0.29762856     0.07300
C397        C  0.20753046  0.79228814  0.29190541     0.09200
C398        C  0.24153757  0.76231101  0.28640402    -0.17600
C399        C  0.74690474  0.66060176  0.20555334    -0.16700
C400        C  0.77473518  0.64660954  0.17562656     0.07300
C401        C  0.80790059  0.63210894  0.14037322     0.09200
C402        C  0.83656634  0.62140763  0.10997747    -0.17600
C403        C  0.62329609  0.77743856  0.22282351    -0.16700
C404        C  0.60415230  0.80631345  0.19712778     0.07300
C405        C  0.58568051  0.84090370  0.16553480     0.09200
C406        C  0.57416408  0.87171937  0.13783867    -0.17600
C407        C  0.87476726  0.86962917  0.31887882    -0.16700
C408        C  0.83953940  0.84074153  0.31767311     0.07300
C409        C  0.79788133  0.80771539  0.31404650     0.09200
C410        C  0.76294049  0.77938968  0.30841205    -0.17600
C411        C  0.11632536  0.12926780  0.70244520    -0.16700
C412        C  0.15017027  0.15875050  0.70849131     0.07300
C413        C  0.19086098  0.19180427  0.71604633     0.09200
C414        C  0.22518006  0.22008079  0.72375233    -0.17600
C415        C  0.35820373  0.22840457  0.81661680    -0.16700
C416        C  0.37776975  0.19932765  0.84191415     0.07300
C417        C  0.39819676  0.16367403  0.87162690     0.09200
C418        C  0.41213093  0.13141842  0.89709407    -0.17600
C419        C  0.22641596  0.34259378  0.81977869    -0.16700
C420        C  0.19186777  0.35598848  0.84387030     0.07300
C421        C  0.15026932  0.37004941  0.87142413     0.09200
C422        C  0.11470594  0.38159979  0.89510347    -0.17600
C423        C  0.10473472  0.63268554  0.88716413    -0.16700
C424        C  0.14081347  0.64014721  0.86278335     0.07300
C425        C  0.18343105  0.65001827  0.83501103     0.09200
C426        C  0.21914391  0.66066755  0.81118388    -0.17600
C427        C  0.11492262  0.86842956  0.69377787    -0.16700
C428        C  0.14911240  0.83901905  0.69760049     0.07300
C429        C  0.19036082  0.80678879  0.70413906     0.09200
C430        C  0.22475084  0.77915163  0.71249151    -0.17600
C431        C  0.35404448  0.77128824  0.80905570    -0.16700
C432        C  0.37335096  0.80069778  0.83411100     0.07300
C433        C  0.39332813  0.83612955  0.86408705     0.09200
C434        C  0.40688123  0.86728301  0.89062332    -0.17600
C435        C  0.57899767  0.13690194  0.91054530    -0.16700
C436        C  0.58904726  0.16732148  0.88141186     0.07300
C437        C  0.60459779  0.20122628  0.84702333     0.09200
C438        C  0.62087626  0.22904557  0.81796432    -0.17600
C439        C  0.74841451  0.22086272  0.71069059    -0.16700
C440        C  0.78197795  0.19227446  0.69957728     0.07300
C441        C  0.82238837  0.15890975  0.68952147     0.09200
C442        C  0.85673721  0.12949462  0.68351613    -0.17600
C443        C  0.74964585  0.34083285  0.81259270    -0.16700
C444        C  0.78224240  0.35240257  0.83759088     0.07300
C445        C  0.82092881  0.36294212  0.86725527     0.09200
C446        C  0.85362351  0.37033142  0.89333821    -0.17600
C447        C  0.60230956  0.78731537  0.81276641    -0.16700
C448        C  0.58542934  0.81458400  0.84197799     0.07300
C449        C  0.56989625  0.84788642  0.87683085     0.09200
C450        C  0.56105788  0.87765859  0.90674386    -0.17600
C451        C  0.84439466  0.65529995  0.88133390    -0.16700
C452        C  0.81096298  0.66069900  0.85579484     0.07300
C453        C  0.76975528  0.66807263  0.82844552     0.09200
C454        C  0.73465625  0.67764917  0.80575180    -0.17600
C455        C  0.73599966  0.79343529  0.70787881    -0.16700
C456        C  0.77334673  0.81756729  0.69825892     0.07300
C457        C  0.81791664  0.84561426  0.68963162     0.09200
C458        C  0.85471652  0.87196817  0.68406281    -0.17600
C459        C  0.60719649  0.65855260  0.69046498    -0.11500
C460        C  0.58747154  0.63008684  0.66478161    -0.13000
C461        C  0.59988360  0.38441607  0.66985172    -0.11500
C462        C  0.62169154  0.35850456  0.69626938    -0.13000
C463        C  0.37163186  0.61607564  0.66217411    -0.11500
C464        C  0.34896203  0.64111761  0.68964560    -0.13000
C465        C  0.61222071  0.61798623  0.36700452    -0.11500
C466        C  0.63447939  0.64442274  0.34002996    -0.13000
C467        C  0.37533270  0.38051304  0.66643592    -0.11500
C468        C  0.35241848  0.35576915  0.69425454    -0.13000
C469        C  0.37167533  0.63802771  0.33233887    -0.11500
C470        C  0.38996277  0.61327597  0.36169475    -0.13000
C471        C  0.64222561  0.35499630  0.34519347    -0.11500
C472        C  0.61848666  0.38079722  0.37135950    -0.13000
C473        C  0.39890004  0.36944298  0.36568766    -0.11500
C474        C  0.38158670  0.34361814  0.33659225    -0.13000
loop_ 
_geom_bond_atom_site_label_1 
_geom_bond_atom_site_label_2 
_geom_bond_distance 
_geom_bond_site_symmetry_2 
_ccdc_geom_bond_type 
O1          Zr13   2.450       .  S
O1            C3   1.288       .  A
O2          Zr39   2.431       .  S
O2            C3   1.287       .  A
C3          C473   1.440       .  S
O4          Zr16   2.442       .  S
O4            C6   1.287       .  A
O5          Zr40   2.413       .  S
O5            C6   1.283       .  A
C6          C463   1.429       .  S
O7          Zr16   2.448       .  S
O7            C9   1.287       .  A
O8          Zr39   2.434       .  S
O8            C9   1.287       .  A
C9          C470   1.441       .  S
O10         Zr13   2.446       .  S
O10          C12   1.287       .  A
O11         Zr40   2.430       .  S
O11          C12   1.286       .  A
C12         C467   1.439       .  S
Zr13         O14   2.434       .  S
Zr13         O15   2.435       .  S
Zr13         O19   2.380       .  S
Zr13         O20   2.373       .  S
Zr13         O43   2.373       .  S
Zr13         O45   2.368       .  S
O14          H57   0.990       .  S
O15          H56   0.990       .  S
O15          H60   0.990       .  S
Zr16         O17   2.435       .  S
Zr16         O18   2.434       .  S
Zr16         O20   2.372       .  S
Zr16         O19   2.373       .  S
Zr16         O44   2.370       .  S
Zr16         O46   2.374       .  S
O17          H58   0.990       .  S
O17          H61   0.990       .  S
O18          H51   0.990       .  S
O19         Zr39   2.386       .  S
O20         Zr40   2.391       .  S
O20          H47   0.965       .  S
O21         Zr33   2.439       .  S
O21          C23   1.285       .  A
O22         Zr40   2.433       .  S
O22          C23   1.287       .  A
C23         C461   1.438       .  S
O24         Zr36   2.436       .  S
O24          C26   1.285       .  A
O25         Zr39   2.436       .  S
O25          C26   1.288       .  A
C26         C465   1.437       .  S
O27         Zr36   2.432       .  S
O27          C29   1.284       .  A
O28         Zr40   2.434       .  S
O28          C29   1.287       .  A
C29         C460   1.435       .  S
O30         Zr33   2.431       .  S
O30          C32   1.284       .  A
O31         Zr39   2.423       .  S
O31          C32   1.285       .  A
C32         C472   1.428       .  S
Zr33         O34   2.435       .  S
Zr33         O35   2.435       .  S
Zr33         O41   2.371       .  S
Zr33         O42   2.374       .  S
Zr33         O45   2.370       .  S
Zr33         O43   2.370       .  S
O34          H54   0.990       .  S
O34          H59   0.990       .  S
O35          H55   0.990       .  S
Zr36         O37   2.436       .  S
Zr36         O38   2.436       .  S
Zr36         O42   2.370       .  S
Zr36         O41   2.373       .  S
Zr36         O46   2.371       .  S
Zr36         O44   2.369       .  S
O37          H53   0.990       .  S
O38          H52   0.990       .  S
O38          H62   0.990       .  S
Zr39         O42   2.384       .  S
Zr39         O44   2.383       .  S
Zr39         O45   2.388       .  S
Zr40         O41   2.384       .  S
Zr40         O43   2.379       .  S
Zr40         O46   2.383       .  S
O41          H49   0.966       .  S
O44          H48   0.966       .  S
O45          H50   0.965       .  S
C63          C64   1.536       .  S
C63          C69   1.539       .  S
C63          C67   1.536       .  S
C63         C459   1.468       .  S
C64          H71   1.087       .  S
C64          C65   1.362       .  D
C65          C66   1.530       .  S
C65         C454   1.435       .  S
C66          C70   1.533       .  S
C66          C68   1.537       .  S
C66          H72   1.112       .  S
C67          H73   1.086       .  S
C67          C68   1.365       .  D
C68         C447   1.445       .  S
C69          H74   1.086       .  S
C69          C70   1.366       .  D
C70         C455   1.444       .  S
C75          C76   1.537       .  S
C75          C81   1.538       .  S
C75          C79   1.537       .  S
C75         C462   1.471       .  S
C76          H83   1.086       .  S
C76          C77   1.365       .  D
C77          C78   1.536       .  S
C77         C438   1.445       .  S
C78          C82   1.534       .  S
C78          C80   1.533       .  S
C78          H84   1.112       .  S
C79          H85   1.086       .  S
C79          C80   1.365       .  D
C80         C443   1.441       .  S
C81          H86   1.087       .  S
C81          C82   1.364       .  D
C82         C439   1.444       .  S
C87          C88   1.533       .  S
C87          C93   1.534       .  S
C87          C91   1.537       .  S
C87         C464   1.462       .  S
C88          H95   1.087       .  S
C88          C89   1.362       .  D
C89          C90   1.536       .  S
C89         C431   1.440       .  S
C90          C94   1.532       .  S
C90          C92   1.534       .  S
C90          H96   1.112       .  S
C91          H97   1.086       .  S
C91          C92   1.365       .  D
C92         C426   1.441       .  S
C93          H98   1.087       .  S
C93          C94   1.361       .  D
C94         C430   1.435       .  S
C99         C100   1.537       .  S
C99         C105   1.538       .  S
C99         C103   1.534       .  S
C99         C468   1.472       .  S
C100        H107   1.086       .  S
C100        C101   1.365       .  D
C101        C102   1.534       .  S
C101        C419   1.441       .  S
C102        C106   1.533       .  S
C102        C104   1.537       .  S
C102        H108   1.112       .  S
C103        H109   1.087       .  S
C103        C104   1.363       .  D
C104        C415   1.444       .  S
C105        H110   1.086       .  S
C105        C106   1.365       .  D
C106        C414   1.443       .  S
N111        C116   1.354       .  A
N111        C115   1.352   1_655  A
N111        H143   1.040       .  S
N112        C119   1.350       .  A
N112        C120   1.351   1_565  A
N113        C118   1.354       .  A
N113        C117   1.354   1_655  A
N113        H144   1.039       .  S
N114        C121   1.350   1_545  A
N114        C122   1.350       .  A
C115        C123   1.387       .  A
C115        C131   1.412       .  A
C116        C132   1.414       .  A
C116        C124   1.387       .  A
C117        C125   1.387       .  A
C117        C134   1.414       .  A
C118        C133   1.415       .  A
C118        C126   1.388       .  A
C119        C131   1.410       .  A
C119        C127   1.388       .  A
C120        C134   1.411       .  A
C120        C128   1.387       .  A
C121        C129   1.387       .  A
C121        C132   1.409       .  A
C122        C130   1.387       .  A
C122        C133   1.410       .  A
C123        C124   1.378   1_455  A
C123        H135   1.083       .  S
C124        H136   1.082       .  S
C125        C126   1.377   1_455  A
C125        H137   1.082       .  S
C126        H138   1.082       .  S
C127        C128   1.371   1_565  A
C127        H139   1.082       .  S
C128        H140   1.082       .  S
C129        C130   1.372   1_565  A
C129        H141   1.082       .  S
C130        H142   1.082       .  S
C131        C427   1.445       .  S
C132        C458   1.452       .  S
C133        C442   1.452       .  S
C134        C411   1.452       .  S
C145        C146   1.535       .  S
C145        C151   1.540       .  S
C145        C149   1.535       .  S
C145        C466   1.471       .  S
C146        H153   1.087       .  S
C146        C147   1.363       .  D
C147        C148   1.536       .  S
C147        C403   1.443       .  S
C148        C152   1.535       .  S
C148        C150   1.534       .  S
C148        H154   1.112       .  S
C149        H155   1.087       .  S
C149        C150   1.363       .  D
C150        C399   1.439       .  S
C151        H156   1.086       .  S
C151        C152   1.366       .  D
C152        C410   1.445       .  S
C157        C158   1.537       .  S
C157        C163   1.539       .  S
C157        C161   1.531       .  S
C157        C469   1.475       .  S
C158        H165   1.086       .  S
C158        C159   1.366       .  D
C159        C160   1.537       .  S
C159        C398   1.445       .  S
C160        C164   1.536       .  S
C160        C162   1.534       .  S
C160        H166   1.112       .  S
C161        H167   1.087       .  S
C161        C162   1.363       .  D
C162        C387   1.440       .  S
C163        H168   1.086       .  S
C163        C164   1.368       .  D
C164        C394   1.444       .  S
N169        C174   1.353       .  A
N169        C173   1.347       .  A
N169        H201   1.039       .  S
N170        C177   1.349   1_556  A
N170        C178   1.349       .  A
N171        C176   1.355       .  A
N171        C175   1.354   1_655  A
N171        H202   1.036       .  S
N172        C179   1.347   1_556  A
N172        C180   1.344       .  A
C173        C181   1.382       .  A
C173        C189   1.409   1_655  A
C174        C190   1.415       .  A
C174        C182   1.390       .  A
C175        C183   1.387       .  A
C175        C192   1.417       .  A
C176        C191   1.420       .  A
C176        C184   1.389       .  A
C177        C189   1.414       .  A
C177        C185   1.383       .  A
C178        C192   1.414       .  A
C178        C186   1.389       .  A
C179        C187   1.386       .  A
C179        C190   1.409       .  A
C180        C188   1.390       .  A
C180        C191   1.412       .  A
C181        C182   1.377       .  A
C181        H193   1.082   1_655  S
C182        H194   1.082       .  S
C183        C184   1.377   1_455  A
C183        H195   1.082       .  S
C184        H196   1.082       .  S
C185        C186   1.374   1_554  A
C185        H197   1.082       .  S
C186        H198   1.082       .  S
C187        C188   1.375   1_554  A
C187        H199   1.082       .  S
C188        H200   1.082       .  S
C189        C305   1.515       .  S
C190        C402   1.448       .  S
C191        C451   1.445       .  S
C192        C423   1.450       .  S
C203        C204   1.538       .  S
C203        C209   1.536       .  S
C203        C207   1.533       .  S
C203        C474   1.473       .  S
C204        H211   1.086       .  S
C204        C205   1.366       .  D
C205        C206   1.536       .  S
C205        C382   1.442       .  S
C206        C210   1.535       .  S
C206        C208   1.532       .  S
C206        H212   1.112       .  S
C207        H213   1.087       .  S
C207        C208   1.364       .  D
C208        C378   1.440       .  S
C209        H214   1.086       .  S
C209        C210   1.365       .  D
C210        C383   1.442       .  S
N215        C220   1.354       .  A
N215        C219   1.354   1_565  A
N215        H247   1.037       .  S
N216        C223   1.352   1_455  A
N216        C224   1.352       .  A
N217        C222   1.354       .  A
N217        C221   1.354   1_565  A
N217        H248   1.037       .  S
N218        C225   1.353   1_455  A
N218        C226   1.353       .  A
C219        C227   1.388       .  A
C219        C235   1.415       .  A
C220        C236   1.415       .  A
C220        C228   1.387       .  A
C221        C229   1.388       .  A
C221        C238   1.415       .  A
C222        C237   1.416       .  A
C222        C230   1.388       .  A
C223        C235   1.413       .  A
C223        C231   1.387       .  A
C224        C238   1.413       .  A
C224        C232   1.387       .  A
C225        C233   1.387       .  A
C225        C236   1.414       .  A
C226        C234   1.387       .  A
C226        C237   1.414       .  A
C227        C228   1.374   1_545  A
C227        H239   1.082       .  S
C228        H240   1.082       .  S
C229        C230   1.375   1_545  A
C229        H241   1.082       .  S
C230        H242   1.082       .  S
C231        C232   1.374   1_655  A
C231        H243   1.082       .  S
C232        H244   1.082       .  S
C233        C234   1.375   1_655  A
C233        H245   1.082       .  S
C234        H246   1.082       .  S
C235        C371   1.452       .  S
C236        C407   1.454       .  S
C237        C395   1.454       .  S
C238        C386   1.452       .  S
N249        C254   1.352   1_554  A
N249        C253   1.353       .  A
N249        H281   1.034       .  S
N250        C257   1.353       .  A
N250        C258   1.352   1_565  A
N251        C256   1.353   1_554  A
N251        C255   1.352       .  A
N251        H282   1.034       .  S
N252        C259   1.352       .  A
N252        C260   1.352   1_565  A
C253        C261   1.387       .  A
C253        C269   1.414       .  A
C254        C270   1.415       .  A
C254        C262   1.388       .  A
C255        C263   1.388       .  A
C255        C272   1.415       .  A
C256        C271   1.414       .  A
C256        C264   1.387       .  A
C257        C269   1.414       .  A
C257        C265   1.386       .  A
C258        C272   1.414       .  A
C258        C266   1.387       .  A
C259        C267   1.387       .  A
C259        C270   1.414       .  A
C260        C268   1.387       .  A
C260        C271   1.414       .  A
C261        C262   1.376   1_554  A
C261        H273   1.082       .  S
C262        H274   1.082       .  S
C263        C264   1.377   1_554  A
C263        H275   1.082       .  S
C264        H276   1.082       .  S
C265        C266   1.371   1_565  A
C265        H277   1.082       .  S
C266        H278   1.082       .  S
C267        C268   1.372   1_565  A
C267        H279   1.082       .  S
C268        H280   1.082       .  S
C269        C391   1.453       .  S
C270        C434   1.449       .  S
C271        C418   1.452       .  S
C272        C379   1.451       .  S
N283        C288   1.355       .  A
N283        C287   1.354   1_554  A
N283        H315   1.038       .  S
N284        C291   1.348       .  A
N284        C292   1.351   1_655  A
N285        C290   1.347   1_556  A
N285        C289   1.346       .  A
N285        H316   1.044       .  S
N286        C293   1.341       .  A
N286        C294   1.344   1_655  A
C287        C295   1.391       .  A
C287        C303   1.421       .  A
C288        C304   1.416       .  A
C288        C296   1.385       .  A
C289        C297   1.392       .  A
C289        C306   1.409       .  A
C290        C305   1.400       .  A
C290        C298   1.380       .  A
C291        C303   1.417       .  A
C291        C299   1.389       .  A
C292        C306   1.413       .  A
C292        C300   1.385       .  A
C293        C301   1.391       .  A
C293        C304   1.407       .  A
C294        C302   1.380       .  A
C294        C305   1.399       .  A
C295        C296   1.377   1_556  A
C295        H307   1.082       .  S
C296        H308   1.082       .  S
C297        C298   1.385   1_556  A
C297        H309   1.082       .  S
C298        H310   1.082       .  S
C299        C300   1.378   1_655  A
C299        H311   1.082       .  S
C300        H312   1.082       .  S
C301        C302   1.384   1_655  A
C301        H313   1.082       .  S
C302        H314   1.082       .  S
C303        C446   1.451       .  S
C304        C367   1.443       .  S
C306        C422   1.447       .  S
C317        C318   1.533       .  S
C317        C323   1.538       .  S
C317        C321   1.533       .  S
C317        C471   1.461       .  S
C318        H325   1.087       .  S
C318        C319   1.361       .  D
C319        C320   1.533       .  S
C319        C370   1.435       .  S
C320        C324   1.534       .  S
C320        C322   1.535       .  S
C320        H326   1.112       .  S
C321        H327   1.087       .  S
C321        C322   1.362       .  D
C322        C363   1.439       .  S
C323        H328   1.086       .  S
C323        C324   1.365       .  D
C324        C374   1.442       .  S
N329        C334   1.353       .  A
N329        C333   1.354   1_554  A
N329        H361   1.038       .  S
N330        C337   1.352       .  A
N330        C338   1.352   1_545  A
N331        C336   1.355       .  A
N331        C335   1.355   1_554  A
N331        H362   1.038       .  S
N332        C339   1.351       .  A
N332        C340   1.351   1_545  A
C333        C341   1.387   1_556  A
C333        C349   1.415       .  A
C334        C350   1.414       .  A
C334        C342   1.388       .  A
C335        C343   1.387       .  A
C335        C352   1.416       .  A
C336        C351   1.416       .  A
C336        C344   1.387       .  A
C337        C349   1.412       .  A
C337        C345   1.386       .  A
C338        C352   1.412       .  A
C338        C346   1.387       .  A
C339        C347   1.387       .  A
C339        C350   1.411       .  A
C340        C348   1.387       .  A
C340        C351   1.411       .  A
C341        C342   1.374       .  A
C341        H353   1.082   1_554  S
C342        H354   1.082       .  S
C343        C344   1.374   1_556  A
C343        H355   1.082       .  S
C344        H356   1.082       .  S
C345        C346   1.372   1_545  A
C345        H357   1.082       .  S
C346        H358   1.082       .  S
C347        C348   1.372   1_545  A
C347        H359   1.082       .  S
C348        H360   1.082       .  S
C349        C435   1.453       .  S
C350        C366   1.449       .  S
C351        C406   1.452       .  S
C352        C450   1.454       .  S
C363        C364   1.204       .  T
C364        C365   1.410       .  S
C365        C366   1.205       .  T
C367        C368   1.203       .  T
C368        C369   1.406       .  S
C369        C370   1.202       .  T
C371        C372   1.207       .  T
C372        C373   1.413       .  S
C373        C374   1.206       .  T
C375        C376   1.203       .  T
C375        C390   1.408       .  S
C376        C377   1.409       .  S
C377        C378   1.204       .  T
C379        C380   1.206       .  T
C380        C381   1.412       .  S
C381        C382   1.206       .  T
C383        C384   1.206       .  T
C384        C385   1.413       .  S
C385        C386   1.207       .  T
C387        C388   1.204       .  T
C388        C389   1.409       .  S
C389        C390   1.203       .  T
C391        C392   1.208       .  T
C392        C393   1.414       .  S
C393        C394   1.207       .  T
C395        C396   1.209       .  T
C396        C397   1.416       .  S
C397        C398   1.208       .  T
C399        C400   1.204       .  T
C400        C401   1.410       .  S
C401        C402   1.205       .  T
C403        C404   1.206       .  T
C404        C405   1.413       .  S
C405        C406   1.207       .  T
C407        C408   1.209       .  T
C408        C409   1.416       .  S
C409        C410   1.208       .  T
C411        C412   1.207       .  T
C412        C413   1.413       .  S
C413        C414   1.206       .  T
C415        C416   1.207       .  T
C416        C417   1.414       .  S
C417        C418   1.207       .  T
C419        C420   1.205       .  T
C420        C421   1.412       .  S
C421        C422   1.206       .  T
C423        C424   1.206       .  T
C424        C425   1.412       .  S
C425        C426   1.205       .  T
C427        C428   1.203       .  T
C428        C429   1.406       .  S
C429        C430   1.202       .  T
C431        C432   1.205       .  T
C432        C433   1.410       .  S
C433        C434   1.205       .  T
C435        C436   1.208       .  T
C436        C437   1.415       .  S
C437        C438   1.207       .  T
C439        C440   1.207       .  T
C440        C441   1.414       .  S
C441        C442   1.207       .  T
C443        C444   1.205       .  T
C444        C445   1.412       .  S
C445        C446   1.206       .  T
C447        C448   1.208       .  T
C448        C449   1.415       .  S
C449        C450   1.208       .  T
C451        C452   1.203       .  T
C452        C453   1.406       .  S
C453        C454   1.202       .  T
C455        C456   1.207       .  T
C456        C457   1.415       .  S
C457        C458   1.208       .  T
C459        C460   1.206       .  T
C461        C462   1.208       .  T
C463        C464   1.202       .  T
C465        C466   1.208       .  T
C467        C468   1.208       .  T
C469        C470   1.210       .  T
C471        C472   1.202       .  T
C473        C474   1.209       .  T
