geometry optimzed in LAMMPS
_audit_creation_date              2020-12-01 
_audit_creation_method            'lammps2cif' 
_symmetry_space_group_name_H-M    'P1' 
_symmetry_Int_Tables_number       1 
_symmetry_cell_setting            triclinic 
loop_ 
_symmetry_equiv_pos_as_xyz 
  x,y,z 
_cell_length_a                    34.2396603 
_cell_length_b                    34.27174804607907 
_cell_length_c                    34.64058693882133 
_cell_angle_alpha                 91.02736387575953 
_cell_angle_beta                  88.68997128859398 
_cell_angle_gamma                 119.77433235526006 
loop_ 
_atom_site_label 
_atom_site_type_symbol 
_atom_site_fract_x 
_atom_site_fract_y 
_atom_site_fract_z 
_atom_site_charge 
C1          C  0.50695312  0.79063113  0.10039177     0.81000
N2          N  0.50835353  0.76003222  0.07561687    -0.77300
C3          C  0.50222403  0.72038904  0.08913506     0.83500
N4          N  0.49548447  0.71180442  0.12757237    -0.77200
C5          C  0.49454111  0.74217741  0.15254486     0.83600
N6          N  0.49989243  0.78148125  0.13878961    -0.78900
C7          C  0.48633146  0.77669064  0.32676790     0.81000
N8          N  0.48583586  0.78238710  0.28810024    -0.77300
C9          C  0.48361943  0.75075306  0.26280170     0.83500
N10         N  0.48118337  0.71260703  0.27640910    -0.77200
C11         C  0.48182290  0.70653612  0.31500914     0.83600
N12         N  0.48488427  0.73895426  0.34014188    -0.78900
C13         C  0.22668675  0.79293628  0.32036056     0.81000
N14         N  0.22592064  0.78353912  0.28189215    -0.77300
C15         C  0.18979170  0.74650136  0.26687172     0.83500
N16         N  0.15532408  0.71895589  0.29051612    -0.77200
C17         C  0.15606802  0.72832621  0.32875631     0.83600
N18         N  0.19151183  0.76532501  0.34345876    -0.78900
C19         C  0.23454733  0.77171840  0.09287864     0.81000
N20         N  0.24143057  0.77841707  0.13148175    -0.77300
C21         C  0.21055990  0.74979671  0.15718251     0.83500
N22         N  0.17242533  0.71359392  0.14410481    -0.77200
C23         C  0.16467961  0.70629965  0.10566727     0.83600
N24         N  0.19569648  0.73586949  0.07993426    -0.78900
C25         C  0.15075722  0.44572635  0.09591258     0.81000
N26         N  0.18620243  0.44366604  0.07997794    -0.77300
C27         C  0.21925640  0.44628626  0.10272819     0.83500
N28         N  0.21638186  0.45042302  0.14163752    -0.77200
C29         C  0.18052249  0.45176108  0.15785256     0.83600
N30         N  0.14806189  0.44968944  0.13484387    -0.78900
C31         C  0.15540261  0.45331646  0.32204845     0.81000
N32         N  0.16234068  0.45596442  0.28319710    -0.77300
C33         C  0.19729968  0.45272157  0.26734109     0.83500
N34         N  0.22554977  0.44745556  0.29069909    -0.77200
C35         C  0.21885406  0.44481016  0.32964089     0.83600
N36         N  0.18359272  0.44746807  0.34516563    -0.78900
C37         C  0.76153356  0.24478955  0.34295300     0.81000
N38         N  0.72763594  0.20640859  0.35765292    -0.77300
C39         C  0.69261003  0.17828668  0.33533041     0.83500
N40         N  0.69188390  0.18824122  0.29742413    -0.77200
C41         C  0.72670420  0.22660231  0.28222892     0.83600
N42         N  0.76098313  0.25459710  0.30525418    -0.78900
C43         C  0.74641106  0.26358714  0.11832167     0.81000
N44         N  0.74111042  0.25820971  0.15742752    -0.77300
C45         C  0.70481443  0.22143674  0.17291152     0.83500
N46         N  0.67360050  0.19064533  0.14917894    -0.77200
C47         C  0.67821424  0.19490746  0.11035037     0.83600
N48         N  0.71493243  0.23134849  0.09463234    -0.78900
C49         C  0.67725476  0.50892950  0.09749317     0.81000
N50         N  0.66722944  0.50178561  0.13596011    -0.77300
C51         C  0.69384773  0.49400460  0.15937505     0.83500
N52         N  0.73046058  0.49350505  0.14415182    -0.77200
C53         C  0.74107608  0.50122966  0.10620455     0.83600
N54         N  0.71449669  0.50917481  0.08284241    -0.78900
C55         C  0.69502590  0.50217749  0.32579778     0.81000
N56         N  0.68667020  0.49327101  0.28735861    -0.77300
C57         C  0.71237492  0.48116750  0.26531702     0.83500
N58         N  0.74629440  0.47818940  0.28162883    -0.77200
C59         C  0.75533985  0.48779065  0.31943499     0.83600
N60         N  0.72972087  0.49988897  0.34152434    -0.78900
C61         C  0.41325777  0.16473305  0.32215827     0.81000
N62         N  0.41559716  0.16532181  0.28305564    -0.77300
C63         C  0.41374157  0.19777967  0.26265103     0.83500
N64         N  0.41081359  0.23143886  0.28217744    -0.77200
C65         C  0.40897232  0.23141541  0.32186379     0.83600
N66         N  0.40959651  0.19761991  0.34141345    -0.78900
C67         C  0.39733169  0.16384199  0.09724180     0.81000
N68         N  0.38842861  0.19030420  0.07478479    -0.77300
C69         C  0.38613306  0.22572226  0.08984576     0.83500
N70         N  0.39173971  0.23424062  0.12856116    -0.77200
C71         C  0.39992464  0.20761261  0.15199258     0.83600
N72         N  0.40323453  0.17245313  0.13601381    -0.78900
N73         N  0.48176971  0.55596713  0.38445725    -0.05300
N74         N  0.47137623  0.58040327  0.36221822    -0.57400
N75         N  0.55917214  0.52678140  0.40620004    -0.05000
N76         N  0.59996589  0.53369732  0.39687086    -0.59600
N77         N  0.53054614  0.50167609  0.37953674    -0.04600
N78         N  0.55056634  0.49130170  0.35176694    -0.57400
N79         N  0.50900821  0.58122171  0.41189957    -0.04300
N80         N  0.51725297  0.62299425  0.40929488    -0.59900
C81         C  0.49377037  0.62210886  0.37821544     0.96900
C82         C  0.59356166  0.51107905  0.36276079     0.96600
N83         N  0.50873316  0.48688438  0.03372263    -0.05500
N84         N  0.52630406  0.47626838  0.06229066    -0.58000
N85         N  0.49198669  0.56923663  0.00716044    -0.03600
N86         N  0.50310587  0.61100952  0.01667925    -0.59300
N87         N  0.46013878  0.54071410  0.03051128    -0.05500
N88         N  0.44927622  0.56224346  0.05661920    -0.58300
N89         N  0.54029076  0.51397993  0.00934211    -0.03300
N90         N  0.58031667  0.52249981  0.02112431    -0.59300
Mn91       Mn  0.53499745  0.55389738  0.45478728     1.18400
C92         C  0.57072107  0.49836792  0.05408651     0.98900
C93         C  0.47590382  0.60588323  0.04747954     0.99600
N94         N  0.43967038  0.41100919  0.37737396    -0.05500
N95         N  0.44820004  0.39000451  0.34891469    -0.61900
N96         N  0.36115450  0.43530919  0.40626712    -0.04300
N97         N  0.31997331  0.42653180  0.39783200    -0.62500
N98         N  0.39032194  0.46422072  0.38140577    -0.05100
N99         N  0.37016075  0.47522687  0.35549526    -0.62100
N100        N  0.41255029  0.38205094  0.40343028    -0.03900
N101        N  0.40214141  0.34059322  0.39282156    -0.62800
Mn102      Mn  0.46057199  0.48341590  0.38011133     1.10700
C103        C  0.42492055  0.34619397  0.35877340     1.00200
C104        C  0.32657816  0.45199748  0.36611825     1.00200
N105        N  0.36718739  0.44972875  0.02314781    -0.05100
N106        N  0.34191483  0.45822218  0.04724741    -0.60400
N107        N  0.39338550  0.37015239  0.99992337    -0.04400
N108        N  0.38004249  0.32820547  0.01062157    -0.57200
N109        N  0.41728125  0.39816535  0.02764910    -0.05700
N110        N  0.42080696  0.37661920  0.05710942    -0.60000
N111        N  0.34281261  0.42304295  0.99498455    -0.04700
N112        N  0.30050930  0.41340798  0.99899652    -0.57200
Mn113      Mn  0.43815800  0.46904277  0.02917363     1.20200
Mn114      Mn  0.38425941  0.40596701  0.45142189     1.10100
Cl115      Cl  0.45935612  0.48038761  0.45322627    -0.85200
C116        C  0.30053778  0.43551397  0.03170882     0.97200
C117        C  0.39793930  0.33329348  0.04639410     0.97000
N118        N  0.00208068  0.56113128  0.04124198    -0.05300
N119        N  0.03791843  0.58388488  0.06319125    -0.57400
N120        N  0.89934172  0.53516965  0.00989990    -0.05000
N121        N  0.86508607  0.54259517  0.01193376    -0.59600
N122        N  0.89704294  0.50884874  0.03804120    -0.04600
N123        N  0.86114225  0.49796473  0.06007998    -0.57400
N124        N  0.00332221  0.58656144  0.01269622    -0.04300
N125        N  0.03966475  0.62660280  0.01440588    -0.59900
C126        C  0.06090111  0.62478817  0.04603119     0.96900
C127        C  0.84164424  0.51930402  0.04329512     0.96600
N128        N  0.91272980  0.50854692  0.38964350    -0.05500
N129        N  0.87708710  0.49357280  0.36752688    -0.58000
N130        N  0.01626150  0.58664181  0.41475684    -0.03600
N131        N  0.04774584  0.62719972  0.40399788    -0.59300
N132        N  0.01567299  0.55618860  0.39080295    -0.05500
N133        N  0.04642455  0.57491642  0.36342718    -0.58300
N134        N  0.91366443  0.53848368  0.41440165    -0.03300
N135        N  0.87902563  0.54455126  0.41001648    -0.59300
Mn136      Mn  0.96303513  0.56726679  0.45934256     1.18400
C137        C  0.85666148  0.51655619  0.38075781     0.98900
C138        C  0.06624295  0.61894803  0.37210347     0.99600
N139        N  0.89640703  0.41548732  0.04182342    -0.05500
N140        N  0.86131257  0.39181926  0.06516001    -0.61900
N141        N  0.00324621  0.44227244  0.01910103    -0.04300
N142        N  0.03631409  0.43465864  0.02766009    -0.62500
N143        N  0.99992442  0.46880993  0.04527770    -0.05100
N144        N  0.03032047  0.47975531  0.07211724    -0.62100
N145        N  0.89910092  0.38900743  0.01511631    -0.03900
N146        N  0.86577725  0.34729610  0.01938594    -0.62800
Mn147      Mn  0.94851123  0.48860681  0.04307632     1.10700
C148        C  0.84243831  0.34922927  0.05067375     1.00200
C149        C  0.05283395  0.45849649  0.06073747     1.00200
N150        N  0.01298849  0.46404466  0.39816966    -0.05100
N151        N  0.04701584  0.47175246  0.37483372    -0.60400
N152        N  0.90729055  0.38987645  0.42266784    -0.04400
N153        N  0.87442319  0.34872050  0.41471962    -0.57200
N154        N  0.91117196  0.41737193  0.39498047    -0.05700
N155        N  0.88174436  0.39624480  0.36785872    -0.60000
N156        N  0.01048640  0.43824768  0.42689757    -0.04700
N157        N  0.04295013  0.42817044  0.42396928    -0.57200
Mn158      Mn  0.96331469  0.48652996  0.39236007     1.20200
Mn159      Mn  0.95630772  0.41546111  0.47042682     1.10100
Cl160      Cl  0.95978918  0.49142443  0.46499741    -0.85200
C161        C  0.06533307  0.44924502  0.39139393     0.97200
C162        C  0.85901890  0.35379410  0.38042890     0.97000
N163        N  0.50388342  0.93735789  0.02994546    -0.05300
N164        N  0.49740300  0.90433203  0.05299223    -0.57400
N165        N  0.57360309  0.04361558  0.00189676    -0.05000
N166        N  0.61316041  0.08084781  0.00414717    -0.59600
N167        N  0.54748730  0.04107561  0.03141706    -0.04600
N168        N  0.56885831  0.07647754  0.05428187    -0.57400
N169        N  0.52922798  0.93947552  0.00004410    -0.04300
N170        N  0.54020277  0.90762194  0.00197914    -0.59900
C171        C  0.52027403  0.88613971  0.03524039     0.96900
C172        C  0.60975381  0.10109502  0.03694761     0.96600
N173        N  0.51559834  0.03108065  0.38761996    -0.05500
N174        N  0.53381970  0.06194356  0.36046920    -0.58000
N175        N  0.49689891  0.92820751  0.40959538    -0.03600
N176        N  0.50466182  0.89544084  0.39857426    -0.59300
N177        N  0.46605201  0.92844350  0.38777371    -0.05500
N178        N  0.45243577  0.89633385  0.36143106    -0.58300
N179        N  0.54684512  0.03173691  0.40941259    -0.03300
N180        N  0.58703167  0.06316294  0.39764290    -0.59300
Mn181      Mn  0.53048369  0.98106273  0.45438338     1.18400
C182        C  0.57837052  0.08174013  0.36717653     0.98900
C183        C  0.47639430  0.87581458  0.36861948     0.99600
N184        N  0.45029260  0.03010808  0.04413177    -0.05500
N185        N  0.45767784  0.05944833  0.07229731    -0.61900
N186        N  0.37661097  0.92459788  0.01541654    -0.04300
N187        N  0.33701184  0.88911531  0.02350847    -0.62500
N188        N  0.40730066  0.92733958  0.03934317    -0.05100
N189        N  0.38911704  0.89391581  0.06417557    -0.62100
N190        N  0.41938501  0.02774658  0.02077521    -0.03900
N191        N  0.40535585  0.05568524  0.03252895    -0.62800
Mn192      Mn  0.47757286  0.98408722  0.03743125     1.10700
C193        C  0.42955071  0.07529078  0.06466354     1.00200
C194        C  0.34548024  0.87014197  0.05381986     1.00200
N195        N  0.37482112  0.92703984  0.40249890    -0.05100
N196        N  0.34929346  0.89695133  0.37667011    -0.60400
N197        N  0.40034654  0.02898621  0.43451690    -0.04400
N198        N  0.38993525  0.06129805  0.43181321    -0.57200
N199        N  0.42395028  0.02921664  0.40388649    -0.05700
N200        N  0.42982127  0.06108427  0.37982646    -0.60000
N201        N  0.35107063  0.92523563  0.43349563    -0.04700
N202        N  0.30867927  0.89352144  0.42941114    -0.57200
Mn203      Mn  0.44502077  0.97902572  0.39472286     1.20200
Mn204      Mn  0.38094310  0.97638981  0.47967893     1.10100
Cl205      Cl  0.45592313  0.97898831  0.46723660    -0.85200
C206        C  0.30827008  0.87628250  0.39386988     0.97200
C207        C  0.40864187  0.08100167  0.39748071     0.97000
C208        C  0.39236619  0.29800587  0.07339156    -0.15600
C209        C  0.38112272  0.25609265  0.06296020    -0.30800
H210        H  0.40276352  0.30892609  0.10290576     0.13400
H211        H  0.37311646  0.24564160  0.03300967     0.14000
C212        C  0.39952240  0.12616430  0.07783751    -0.15600
C213        C  0.42529150  0.10917373  0.08896758    -0.30800
H214        H  0.38205712  0.11481065  0.05057270     0.13400
H215        H  0.44492756  0.12161570  0.11506898     0.14000
C216        C  0.41384796  0.19358921  0.21957723    -0.15600
C217        C  0.40389203  0.21699214  0.19463850    -0.30800
H218        H  0.42012847  0.16750666  0.20798609     0.13400
H219        H  0.39713823  0.24291966  0.20576766     0.14000
C220        C  0.42357478  0.30981077  0.33350089    -0.15600
C221        C  0.40612864  0.26703883  0.34509248    -0.30800
H222        H  0.43949198  0.31918466  0.30513891     0.13400
H223        H  0.39272481  0.25854925  0.37434913     0.14000
C224        C  0.41610067  0.12870631  0.34257888    -0.15600
C225        C  0.40493024  0.11822913  0.38005973    -0.30800
H226        H  0.42690690  0.10893878  0.32524325     0.13400
H227        H  0.39207953  0.13611397  0.39754100     0.14000
C228        C  0.62752539  0.50811824  0.33818759    -0.15600
C229        C  0.66629094  0.51319382  0.35096749    -0.30800
H230        H  0.61767902  0.49683494  0.30864377     0.13400
H231        H  0.67534625  0.52223183  0.38100232     0.14000
C232        C  0.79482913  0.48796892  0.33506980    -0.15600
C233        C  0.81447431  0.51155097  0.36682883    -0.30800
H234        H  0.81010857  0.47162829  0.31854612     0.13400
H235        H  0.80044348  0.52972866  0.38232576     0.14000
C236        C  0.60352421  0.49786555  0.08036809    -0.15600
C237        C  0.64701414  0.51421187  0.07111340    -0.30800
H238        H  0.59054560  0.48139217  0.10798474     0.13400
H239        H  0.65967474  0.52843872  0.04270762     0.14000
C240        C  0.68531567  0.48920652  0.20151934    -0.15600
C241        C  0.70790884  0.47522718  0.22326360    -0.30800
H242        H  0.66380190  0.50075270  0.21485211     0.13400
H243        H  0.72889747  0.46343249  0.20922275     0.14000
C244        C  0.78140879  0.50078307  0.09131808    -0.15600
C245        C  0.80010080  0.51799251  0.05696845    -0.30800
H246        H  0.79723762  0.48761740  0.10992458     0.13400
H247        H  0.78558381  0.53296681  0.03891218     0.14000
C248        C  0.64702540  0.14344004  0.05312009    -0.15600
C249        C  0.64161382  0.15930559  0.08734200    -0.30800
H250        H  0.67961035  0.15949592  0.03847089     0.13400
H251        H  0.60916213  0.14127053  0.10211090     0.14000
C252        C  0.80122277  0.30892776  0.06585097    -0.15600
C253        C  0.78612630  0.30511486  0.10264732    -0.30800
H254        H  0.78437655  0.28029863  0.04644619     0.13400
H255        H  0.80477102  0.33274196  0.12264590     0.14000
C256        C  0.65647713  0.13781148  0.35372093    -0.15600
C257        C  0.61328744  0.11836458  0.34361564    -0.30800
H258        H  0.66541545  0.12639322  0.37940623     0.13400
H259        H  0.60335664  0.13071551  0.31917989     0.14000
C260        C  0.72971620  0.23841095  0.24089093    -0.15600
C261        C  0.69900126  0.21235021  0.21495476    -0.30800
H262        H  0.75952280  0.26886298  0.23127645     0.13400
H263        H  0.66931895  0.18174719  0.22452228     0.14000
C264        C  0.82411993  0.31873973  0.35687174    -0.15600
C265        C  0.79745617  0.27655449  0.36837156    -0.30800
H266        H  0.81958520  0.32920993  0.32868973     0.13400
H267        H  0.80047029  0.26616626  0.39707019     0.14000
C268        C  0.29184532  0.45216799  0.34236977    -0.15600
C269        C  0.25036248  0.44043161  0.35511273    -0.30800
H270        H  0.30226713  0.46529573  0.31330942     0.13400
H271        H  0.24053774  0.43019475  0.38491955     0.14000
C272        C  0.11765930  0.45730919  0.33869038    -0.15600
C273        C  0.10380582  0.44627678  0.37541692    -0.30800
H274        H  0.10006636  0.46839038  0.31997813     0.13400
H275        H  0.11976691  0.43305601  0.39377610     0.14000
C276        C  0.20449170  0.45358825  0.22507640    -0.15600
C277        C  0.17549734  0.45446937  0.20011287    -0.30800
H278        H  0.23360185  0.45177012  0.21429821     0.13400
H279        H  0.14607369  0.45568276  0.21093461     0.14000
C280        C  0.25899091  0.44634136  0.08552988    -0.15600
C281        C  0.26006042  0.43388341  0.04872560    -0.30800
H282        H  0.28799559  0.45659471  0.10372438     0.13400
H283        H  0.23045746  0.42138644  0.03090317     0.14000
C284        C  0.08847547  0.45929600  0.08395166    -0.15600
C285        C  0.11578597  0.44427216  0.07096445    -0.30800
H286        H  0.09270615  0.47367427  0.11282932     0.13400
H287        H  0.11334776  0.43212692  0.04141003     0.14000
C288        C  0.10504916  0.66277722  0.05784659    -0.15600
C289        C  0.12210216  0.66644428  0.09307492    -0.30800
H290        H  0.12291617  0.68980597  0.03729635     0.13400
H291        H  0.10290088  0.64056189  0.11427632     0.14000
C292        C  0.26850755  0.80477814  0.06563699    -0.15600
C293        C  0.31110907  0.83239875  0.07695386    -0.30800
H294        H  0.25839178  0.80715035  0.03670154     0.13400
H295        H  0.32140005  0.82803456  0.10522495     0.12500
C296        C  0.12090176  0.69661751  0.35491447    -0.15600
C297        C  0.09991515  0.65279720  0.34654770    -0.30800
H298        H  0.11480241  0.70866757  0.38233323     0.13400
H299        H  0.10818188  0.64083809  0.32005213     0.14000
C300        C  0.21766235  0.76016828  0.19890372    -0.15600
C301        C  0.18642356  0.73501063  0.22539702    -0.30800
H302        H  0.24816715  0.79022169  0.20775870     0.13400
H303        H  0.15590772  0.70511697  0.21628148     0.14000
C304        C  0.26765406  0.84074301  0.37558898    -0.15600
C305        C  0.26667409  0.83088837  0.33768023    -0.30800
H306        H  0.23794843  0.82244490  0.39387523     0.13400
H307        H  0.29612392  0.85016023  0.31934048     0.14000
C308        C  0.47967699  0.66496221  0.32900423    -0.15600
C309        C  0.49324298  0.66233119  0.36442580    -0.30800
H310        H  0.46881513  0.63671850  0.30910511     0.13400
H311        H  0.50657143  0.69145929  0.38352962     0.14000
C312        C  0.48883801  0.81157723  0.35397326    -0.15600
C313        C  0.47425310  0.83965290  0.34363650    -0.30800
H314        H  0.50144185  0.81343235  0.38283350     0.13400
H315        H  0.45882973  0.83543363  0.31566719     0.14000
C316        C  0.50095079  0.68593186  0.06220123    -0.15600
C317        C  0.47800112  0.64235131  0.07183911    -0.30800
H318        H  0.51747764  0.69606493  0.03407757     0.13400
H319        H  0.45943129  0.63248136  0.09912818     0.14000
C320        C  0.52185957  0.84662486  0.04950235    -0.15600
C321        C  0.50967641  0.83223789  0.08597975    -0.30800
H322        H  0.53293609  0.82905088  0.02963830     0.13400
H323        H  0.50055403  0.85128410  0.10601184     0.14000
C324        C  0.48803721  0.73171651  0.19419715    -0.15600
C325        C  0.48626893  0.75966942  0.22094832    -0.30800
H326        H  0.48576128  0.70040710  0.20308529     0.13400
H327        H  0.48864011  0.79102861  0.21209491     0.14000
C328        C  0.51059252  0.79270800  0.60241387     0.81000
N329        N  0.51448937  0.76401642  0.57702944    -0.77300
C330        C  0.51401329  0.72662809  0.58984272     0.83500
N331        N  0.51020205  0.71826385  0.62839987    -0.77200
C332        C  0.50706009  0.74698073  0.65408886     0.83600
N333        N  0.50683524  0.78403993  0.64089763    -0.78900
C334        C  0.50589150  0.78345145  0.82905792     0.81000
N335        N  0.50660620  0.78943459  0.79032773    -0.77300
C336        C  0.50171878  0.75668865  0.76510239     0.83500
N337        N  0.49538204  0.71696867  0.77884333    -0.77200
C338        C  0.49453116  0.71028585  0.81755131     0.83600
N339        N  0.50017870  0.74386783  0.84262403    -0.78900
C340        C  0.22729607  0.78053811  0.83993970     0.81000
N341        N  0.23643172  0.78672254  0.80137264    -0.77300
C342        C  0.21037097  0.75457708  0.77560817     0.83500
N343        N  0.17438422  0.71585313  0.78858927    -0.77200
C344        C  0.16438744  0.70948103  0.82694249     0.83600
N345        N  0.19100661  0.74204120  0.85259014    -0.78900
C346        C  0.22661791  0.77417857  0.60797981     0.81000
N347        N  0.23160099  0.77143982  0.64679076    -0.77300
C348        C  0.20173372  0.73360157  0.66633111     0.83500
N349        N  0.16800775  0.69919481  0.64711062    -0.77200
C350        C  0.16238978  0.70208565  0.60912153     0.83600
N351        N  0.19145906  0.73974846  0.58957786    -0.78900
C352        C  0.16407596  0.46084344  0.59102482     0.81000
N353        N  0.20138544  0.46085784  0.57633642    -0.77300
C354        C  0.23408779  0.46436573  0.60044154     0.83500
N355        N  0.22864826  0.46704557  0.63932978    -0.77200
C356        C  0.19111434  0.46636767  0.65415702     0.83600
N357        N  0.15940905  0.46355203  0.62985148    -0.78900
C358        C  0.15346103  0.45692389  0.81860527     0.81000
N359        N  0.16253325  0.46202472  0.77989019    -0.77300
C360        C  0.19842679  0.45966062  0.76473470     0.83500
N361        N  0.22510911  0.45263106  0.78854656    -0.77200
C362        C  0.21636011  0.44747873  0.82711717     0.83600
N363        N  0.18042060  0.44941463  0.84198093    -0.78900
C364        C  0.76686890  0.26313091  0.81612868     0.81000
N365        N  0.73953380  0.23002283  0.84098020    -0.77300
C366        C  0.70391888  0.19187149  0.82779510     0.83500
N367        N  0.69583848  0.18634694  0.78940388    -0.77200
C368        C  0.72289393  0.21865572  0.76412658     0.83600
N369        N  0.75847493  0.25744685  0.77754968    -0.78900
C370        C  0.75124446  0.25262607  0.58938848     0.81000
N371        N  0.75685187  0.26037174  0.62793010    -0.77300
C372        C  0.72772106  0.23005146  0.65354027     0.83500
N373        N  0.69185516  0.19144987  0.64034795    -0.77200
C374        C  0.68595217  0.18325462  0.60165954     0.83600
N375        N  0.71606500  0.21384180  0.57628508    -0.78900
C376        C  0.67434929  0.49092841  0.60353644     0.81000
N377        N  0.67709018  0.48723972  0.64247166    -0.77300
C378        C  0.71190500  0.48396846  0.65726802     0.83500
N379        N  0.74319187  0.48370065  0.63312232    -0.77200
C380        C  0.74163201  0.48821587  0.59466245     0.83600
N381        N  0.70728529  0.49209309  0.57958493    -0.78900
C382        C  0.69459967  0.51404627  0.83110580     0.81000
N383        N  0.68433043  0.50774322  0.79304848    -0.77300
C384        C  0.70890606  0.49825527  0.76745176     0.83500
N385        N  0.74470420  0.49516908  0.78010123    -0.77200
C386        C  0.75556610  0.50180082  0.81816575     0.83600
N387        N  0.73025286  0.51115192  0.84347242    -0.78900
C388        C  0.42035052  0.16723332  0.82105561     0.81000
N389        N  0.42192624  0.16846493  0.78197178    -0.77300
C390        C  0.41654745  0.19942184  0.76249169     0.83500
N391        N  0.41039725  0.23062260  0.78282952    -0.77200
C392        C  0.40882932  0.22968682  0.82243824     0.83600
N393        N  0.41330575  0.19759505  0.84118375    -0.78900
C394        C  0.40189980  0.17019138  0.59796137     0.81000
N395        N  0.39480678  0.19775691  0.57539051    -0.77300
C396        C  0.39474849  0.23430555  0.59042286     0.83500
N397        N  0.40049696  0.24274925  0.62916295    -0.77200
C398        C  0.40642985  0.21460762  0.65259793     0.83600
N399        N  0.40773762  0.17849374  0.63663214    -0.78900
N400        N  0.47575482  0.55074087  0.88877671    -0.05300
N401        N  0.46858346  0.57683078  0.86553628    -0.57400
N402        N  0.55032174  0.51989438  0.91612083    -0.05000
N403        N  0.59237237  0.53009236  0.90780427    -0.59600
N404        N  0.52373759  0.49561886  0.88796250    -0.04600
N405        N  0.54638551  0.48866793  0.86033560    -0.57400
N406        N  0.50107127  0.57466083  0.91770099    -0.04300
N407        N  0.51087872  0.61692835  0.91527553    -0.59900
C408        C  0.49067992  0.61802831  0.88267645     0.96900
C409        C  0.58877324  0.50980758  0.87293544     0.96600
N410        N  0.53001261  0.49752661  0.52565308    -0.05500
N411        N  0.55211516  0.48602785  0.54974672    -0.58000
N412        N  0.50811560  0.57891151  0.50258326    -0.03600
N413        N  0.51880295  0.62056685  0.51259523    -0.59300
N414        N  0.47896502  0.55034936  0.52764675    -0.05500
N415        N  0.46944333  0.57143509  0.55509759    -0.58300
N416        N  0.55765660  0.52397364  0.49856376    -0.03300
N417        N  0.59869912  0.53072334  0.50345672    -0.59300
Mn418      Mn  0.52253719  0.54533593  0.96260446     1.18400
C419        C  0.59497337  0.50703663  0.53544496     0.98900
C420        C  0.49406345  0.61499940  0.54539514     0.99600
N421        N  0.43310250  0.40544448  0.88032390    -0.05500
N422        N  0.44358367  0.38546851  0.85231639    -0.61900
N423        N  0.35280864  0.42886999  0.90473826    -0.04300
N424        N  0.31249630  0.42183956  0.89535802    -0.62500
N425        N  0.38363641  0.45865819  0.88138342    -0.05100
N426        N  0.36536503  0.47189427  0.85546165    -0.62100
N427        N  0.40412669  0.37554249  0.90485980    -0.03900
N428        N  0.39439050  0.33445961  0.89366345    -0.62800
Mn429      Mn  0.45398896  0.47776456  0.88391502     1.10700
C430        C  0.41956273  0.34133987  0.86087951     1.00200
C431        C  0.32125618  0.44912457  0.86458432     1.00200
N432        N  0.38467104  0.46024926  0.52482400    -0.05100
N433        N  0.36092063  0.47152298  0.54867316    -0.60400
N434        N  0.40909001  0.37994972  0.49870250    -0.04400
N435        N  0.39528732  0.33818882  0.51012323    -0.57200
N436        N  0.43611222  0.40851822  0.52476613    -0.05700
N437        N  0.44148220  0.38753469  0.55368801    -0.60000
N438        N  0.35873660  0.43355345  0.49725329    -0.04700
N439        N  0.31738140  0.42671039  0.50146197    -0.57200
Mn440      Mn  0.45738475  0.47920855  0.52645022     1.20200
Mn441      Mn  0.37214614  0.39755208  0.95092152     1.10100
Cl442      Cl  0.44680203  0.47215051  0.95663803    -0.85200
C443        C  0.31896137  0.45031456  0.53360504     0.97200
C444        C  0.41632738  0.34398244  0.54442821     0.97000
N445        N  0.00946479  0.56722169  0.53405907    -0.05300
N446        N  0.04334241  0.58966135  0.55760627    -0.57400
N447        N  0.90815278  0.54447043  0.50272622    -0.05000
N448        N  0.87226670  0.54957774  0.50279332    -0.59600
N449        N  0.90514484  0.51781585  0.53083651    -0.04600
N450        N  0.86716611  0.50407875  0.55048644    -0.57400
N451        N  0.01215191  0.59286001  0.50518587    -0.04300
N452        N  0.04777016  0.63321999  0.50833114    -0.59900
C453        C  0.06682408  0.63066332  0.54110787     0.96900
C454        C  0.84693809  0.52406386  0.53272447     0.96600
N455        N  0.90580659  0.50594616  0.89345258    -0.05500
N456        N  0.87224290  0.49391279  0.86921750    -0.58000
N457        N  0.00803276  0.58493267  0.92342561    -0.03600
N458        N  0.04231638  0.62610287  0.92048743    -0.59300
N459        N  0.01028754  0.55869266  0.89635762    -0.05500
N460        N  0.04633268  0.58191943  0.87403194    -0.58300
N461        N  0.90456893  0.53282246  0.92044760    -0.03300
N462        N  0.87027953  0.53938607  0.91552078    -0.59300
Mn463      Mn  0.95373277  0.56084951  0.96664331     1.18400
C464        C  0.85054862  0.51523299  0.88354979     0.98900
C465        C  0.06583759  0.62393169  0.88963979     0.99600
N466        N  0.90225312  0.42601450  0.53829078    -0.05500
N467        N  0.86775269  0.40715674  0.56249598    -0.61900
N468        N  0.00652028  0.44477068  0.51726759    -0.04300
N469        N  0.04031796  0.43788364  0.52527863    -0.62500
N470        N  0.00551978  0.47413813  0.54170434    -0.05100
N471        N  0.03797886  0.48734016  0.56699021    -0.62100
N472        N  0.90188171  0.39603261  0.51383071    -0.03900
N473        N  0.86685254  0.35593887  0.52088911    -0.62800
Mn474      Mn  0.95559342  0.49650695  0.53767679     1.10700
C475        C  0.84588198  0.36370817  0.55120220     1.00200
C476        C  0.05963188  0.46485755  0.55636985     1.00200
N477        N  0.01024099  0.46616819  0.89884134    -0.05100
N478        N  0.04341477  0.47416215  0.87420634    -0.60400
N479        N  0.90601210  0.38847546  0.92428920    -0.04400
N480        N  0.87350419  0.34675647  0.91903269    -0.57200
N481        N  0.90724891  0.41416493  0.89591652    -0.05700
N482        N  0.87575440  0.39016526  0.87049795    -0.60000
N483        N  0.00935741  0.44071121  0.92729546    -0.04700
N484        N  0.04212774  0.43120054  0.92268947    -0.57200
Mn485      Mn  0.95845109  0.48626921  0.89461273     1.20200
Mn486      Mn  0.95465792  0.41407199  0.97150666     1.10100
Cl487      Cl  0.95373858  0.48724119  0.96894224    -0.85200
C488        C  0.06303679  0.45222592  0.88955867     0.97200
C489        C  0.85506869  0.34823543  0.88547145     0.97000
N490        N  0.49038918  0.93020053  0.53101401    -0.05300
N491        N  0.48752451  0.89950355  0.55526179    -0.57400
N492        N  0.56081184  0.03382863  0.49962037    -0.05000
N493        N  0.60232363  0.06808765  0.50131368    -0.59600
N494        N  0.53772342  0.03297484  0.53083980    -0.04600
N495        N  0.56306180  0.06627911  0.55450770    -0.57400
N496        N  0.51281485  0.93052220  0.49954731    -0.04300
N497        N  0.52538198  0.89992711  0.50157128    -0.59900
C498        C  0.50943763  0.88089882  0.53640162     0.96900
C499        C  0.60321029  0.08788193  0.53569895     0.96600
N500        N  0.53514611  0.04220836  0.88922536    -0.05500
N501        N  0.55282878  0.07378701  0.86291891    -0.58000
N502        N  0.51995957  0.93969633  0.90934774    -0.03600
N503        N  0.52836369  0.90694512  0.89951261    -0.59300
N504        N  0.49030129  0.93985618  0.88593738    -0.05500
N505        N  0.47824237  0.90782155  0.85967161    -0.58300
N506        N  0.56632143  0.04391152  0.91173151    -0.03300
N507        N  0.60627794  0.07732210  0.90128999    -0.59300
Mn508      Mn  0.54878706  0.99164636  0.95574717     1.18400
C509        C  0.59694952  0.09560586  0.87093574     0.98900
C510        C  0.50180854  0.88733633  0.86849075     0.99600
N511        N  0.44449173  0.02924887  0.54710225    -0.05500
N512        N  0.45544319  0.06058712  0.57412931    -0.61900
N513        N  0.36485436  0.92453216  0.52482977    -0.04300
N514        N  0.32514151  0.89204675  0.53712493    -0.62500
N515        N  0.39697509  0.92652466  0.54648548    -0.05100
N516        N  0.37992628  0.89578284  0.57372228    -0.62100
N517        N  0.41299725  0.02771999  0.52499341    -0.03900
N518        N  0.40200940  0.05794666  0.53637294    -0.62800
Mn519      Mn  0.46757172  0.97975805  0.53984458     1.10700
C520        C  0.42872836  0.07825065  0.56695304     1.00200
C521        C  0.33523369  0.87438501  0.56758531     1.00200
N522        N  0.39720044  0.93382317  0.89521758    -0.05100
N523        N  0.37672563  0.90424723  0.86763908    -0.60400
N524        N  0.41459457  0.03267850  0.92975979    -0.04400
N525        N  0.40285796  0.06399846  0.92752667    -0.57200
N526        N  0.44116723  0.03593297  0.90043280    -0.05700
N527        N  0.44766913  0.06904027  0.87752647    -0.60000
N528        N  0.36928723  0.92862747  0.92391291    -0.04700
N529        N  0.32855768  0.89471707  0.91615393    -0.57200
Mn530      Mn  0.46599244  0.98819073  0.89208152     1.20200
Mn531      Mn  0.39344001  0.97812062  0.97261819     1.10100
Cl532      Cl  0.47139395  0.98549277  0.96460546    -0.85200
C533        C  0.33423821  0.87991510  0.88091408     0.97200
C534        C  0.42374759  0.08637358  0.89477102     0.97000
C535        C  0.41082340  0.30929303  0.57189785    -0.15600
C536        C  0.39170579  0.26561329  0.56351544    -0.30800
H537        H  0.42637183  0.32123361  0.59986943     0.13400
H538        H  0.37854641  0.25367285  0.53481803     0.14000
C539        C  0.40211567  0.13153066  0.57914887    -0.15600
C540        C  0.42748762  0.11413217  0.59028926    -0.30800
H541        H  0.38336410  0.11955299  0.55253011     0.13400
H542        H  0.44841875  0.12726952  0.61562246     0.14000
C543        C  0.41633225  0.19631150  0.71951669    -0.15600
C544        C  0.40982324  0.22278763  0.69527618    -0.30800
H545        H  0.42061870  0.16922579  0.70728095     0.13400
H546        H  0.40565691  0.25016015  0.70691015     0.14000
C547        C  0.41979989  0.30605010  0.83536134    -0.15600
C548        C  0.40302715  0.26314453  0.84616213    -0.30800
H549        H  0.43689817  0.31657596  0.80751759     0.13400
H550        H  0.38873522  0.25337662  0.87505520     0.14000
C551        C  0.42739650  0.13324287  0.84053008    -0.15600
C552        C  0.41811679  0.12270367  0.87811019    -0.30800
H553        H  0.43922418  0.11479954  0.82251116     0.13400
H554        H  0.40407930  0.13908065  0.89617945     0.14000
C555        C  0.62507755  0.51342482  0.84759883    -0.15600
C556        C  0.66501357  0.52038437  0.85916225    -0.30800
H557        H  0.61582294  0.50509839  0.81751767     0.13400
H558        H  0.67389577  0.52647467  0.88946325     0.14000
C559        C  0.79496044  0.49948243  0.83203546    -0.15600
C560        C  0.80994810  0.51307276  0.86799916    -0.30800
H561        H  0.81272933  0.48841048  0.81234098     0.13400
H562        H  0.79311245  0.52593772  0.88691431     0.14000
C563        C  0.63370539  0.50473893  0.55145507    -0.15600
C564        C  0.63484948  0.49236636  0.58790823    -0.30800
H565        H  0.66310724  0.51545089  0.53276649     0.13400
H566        H  0.60636395  0.48395364  0.60722396     0.14000
C567        C  0.71884756  0.48309420  0.69909449    -0.15600
C568        C  0.69655455  0.49283743  0.72624370    -0.30800
H569        H  0.74607273  0.47756082  0.70758275     0.13400
H570        H  0.66966852  0.49897115  0.71793798     0.14000
C571        C  0.77751343  0.48742520  0.57115828    -0.15600
C572        C  0.80291103  0.51887073  0.54513255    -0.30800
H573        H  0.78891223  0.46494325  0.58121445     0.13400
H574        H  0.79325553  0.54282969  0.53547222     0.14000
C575        C  0.64322058  0.12821757  0.55041439    -0.15600
C576        C  0.64635913  0.14188586  0.58745210    -0.30800
H577        H  0.67099537  0.14669506  0.53027278     0.13400
H578        H  0.61934970  0.12215250  0.60791507     0.14000
C579        C  0.80804875  0.32918791  0.57352516    -0.15600
C580        C  0.78389018  0.28613254  0.56229615    -0.30800
H581        H  0.80098794  0.33970319  0.60139017     0.13400
H582        H  0.78874677  0.27549436  0.53369014     0.14000
C583        C  0.67310734  0.15745719  0.85510208    -0.15600
C584        C  0.63001508  0.13091640  0.84583394    -0.30800
H585        H  0.68510088  0.15522754  0.88330935     0.13400
H586        H  0.61780250  0.13555241  0.81854858     0.14000
C587        C  0.71259256  0.21009824  0.72261753    -0.15600
C588        C  0.73681701  0.23979275  0.69513631    -0.30800
H589        H  0.68432177  0.17773771  0.71448531     0.13400
H590        H  0.76530548  0.27203529  0.70320150     0.14000
C591        C  0.81705899  0.30820476  0.86839418    -0.15600
C592        C  0.80500893  0.30513347  0.83129952    -0.30800
H593        H  0.79946375  0.27931889  0.88720438     0.13400
H594        H  0.82373936  0.33324535  0.81191365     0.14000
C595        C  0.28810148  0.45221581  0.84079473    -0.15600
C596        C  0.24641881  0.44096068  0.85280632    -0.30800
H597        H  0.29988951  0.46688935  0.81237427     0.13400
H598        H  0.23524564  0.42904721  0.88206670     0.14000
C599        C  0.11493979  0.46025786  0.83521322    -0.15600
C600        C  0.10155921  0.44977694  0.87228659    -0.30800
H601        H  0.09690163  0.47084907  0.81656391     0.13400
H602        H  0.11834651  0.43736645  0.89052040     0.14000
C603        C  0.20898755  0.46354942  0.72275652    -0.15600
C604        C  0.18275193  0.46681918  0.69631028    -0.30800
H605        H  0.23858322  0.46183388  0.71330059     0.13400
H606        H  0.15270876  0.46771332  0.70570310     0.14000
C607        C  0.27558158  0.46519313  0.58516425    -0.15600
C608        C  0.27901778  0.45225033  0.54891570    -0.30800
H609        H  0.30325999  0.47485923  0.60480505     0.13400
H610        H  0.25042447  0.44030537  0.52994325     0.14000
C611        C  0.09737798  0.46806548  0.57875961    -0.15600
C612        C  0.12807502  0.45718407  0.56537754    -0.30800
H613        H  0.10055674  0.48163284  0.60780419     0.13400
H614        H  0.12705301  0.44622372  0.53565125     0.14000
C615        C  0.10800041  0.66823404  0.55675774    -0.15600
C616        C  0.12374249  0.66444128  0.59057706    -0.30800
H617        H  0.12454508  0.69966316  0.54099659     0.13400
H618        H  0.10598468  0.63323733  0.60661588     0.14000
C619        C  0.25853710  0.81355729  0.58482670    -0.15600
C620        C  0.30236076  0.83803880  0.59299242    -0.30800
H621        H  0.24641370  0.81988869  0.55823395     0.13400
H622        H  0.31509738  0.83002660  0.61834017     0.12500
C623        C  0.12446495  0.66741880  0.84016947    -0.15600
C624        C  0.10772953  0.66343935  0.87616814    -0.30800
H625        H  0.10720900  0.64023437  0.81945345     0.13400
H626        H  0.12359369  0.69162241  0.89617488     0.14000
C627        C  0.20193556  0.72846945  0.70843826    -0.15600
C628        C  0.22053151  0.76259290  0.73374559    -0.30800
H629        H  0.18093326  0.69457312  0.71930037     0.13400
H630        H  0.24165757  0.79678501  0.72365902     0.14000
C631        C  0.29951035  0.84530900  0.85637040    -0.15600
C632        C  0.25791841  0.81468397  0.86787953    -0.30800
H633        H  0.31017877  0.84444139  0.82669378     0.13400
H634        H  0.24735963  0.81339628  0.89788909     0.14000
C635        C  0.48729034  0.66640690  0.83162600    -0.15600
C636        C  0.49386752  0.66005563  0.86853410    -0.30800
H637        H  0.47829333  0.63933773  0.81075383     0.13400
H638        H  0.50510395  0.68783069  0.88897472     0.14000
C639        C  0.51024264  0.81961508  0.85599739    -0.15600
C640        C  0.50026132  0.85079683  0.84415629    -0.30800
H641        H  0.51962383  0.81957122  0.88571049     0.13400
H642        H  0.48771806  0.84830039  0.81518247     0.14000
C643        C  0.51511466  0.69407812  0.56183519    -0.15600
C644        C  0.49604179  0.65056509  0.57108481    -0.30800
H645        H  0.52921217  0.70525601  0.53306081     0.13400
H646        H  0.47956306  0.63960598  0.59916501     0.14000
C647        C  0.51555006  0.84432537  0.55130565    -0.15600
C648        C  0.50738526  0.83148817  0.58840378    -0.30800
H649        H  0.52729078  0.82768748  0.53102577     0.13400
H650        H  0.49736506  0.84939148  0.60891871     0.14000
C651        C  0.50344587  0.73695804  0.69589322    -0.15600
C652        C  0.50361813  0.76542326  0.72319174    -0.30800
H653        H  0.50155719  0.70570370  0.70435581     0.13400
H654        H  0.50637202  0.79704706  0.71466701     0.14000
loop_ 
_geom_bond_atom_site_label_1 
_geom_bond_atom_site_label_2 
_geom_bond_distance 
_geom_bond_site_symmetry_2 
_ccdc_geom_bond_type 
C1            N2   1.362       .  A
C1            N6   1.361       .  A
C1          C321   1.477       .  S
N2            C3   1.358       .  A
C3            N4   1.358       .  A
C3          C316   1.476       .  S
N4            C5   1.354       .  A
C5            N6   1.360       .  A
C5          C324   1.478       .  S
C7            N8   1.359       .  A
C7           N12   1.359       .  A
C7          C312   1.479       .  S
N8            C9   1.355       .  A
C9           N10   1.360       .  A
C9          C325   1.478       .  S
N10          C11   1.359       .  A
C11          N12   1.363       .  A
C11         C308   1.480       .  S
C13          N14   1.363       .  A
C13          N18   1.356       .  A
C13         C305   1.472       .  S
N14          C15   1.363       .  A
C15          N16   1.353       .  A
C15         C301   1.475       .  S
N16          C17   1.355       .  A
C17          N18   1.348       .  A
C17         C296   1.462       .  S
C19          N20   1.359       .  A
C19          N24   1.365       .  A
C19         C292   1.485       .  S
N20          C21   1.353       .  A
C21          N22   1.359       .  A
C21         C300   1.479       .  S
N22          C23   1.358       .  A
C23          N24   1.367       .  A
C23         C289   1.487       .  S
C25          N26   1.355       .  A
C25          N30   1.359       .  A
C25         C285   1.473       .  S
N26          C27   1.359       .  A
C27          N28   1.359       .  A
C27         C280   1.472       .  S
N28          C29   1.360       .  A
C29          N30   1.355       .  A
C29         C277   1.477       .  S
C31          N32   1.358       .  A
C31          N36   1.359       .  A
C31         C272   1.470       .  S
N32          C33   1.359       .  A
C33          N34   1.355       .  A
C33         C276   1.477       .  S
N34          C35   1.360       .  A
C35          N36   1.354       .  A
C35         C269   1.474       .  S
C37          N38   1.348       .  A
C37          N42   1.357       .  A
C37         C265   1.469       .  S
N38          C39   1.354       .  A
C39          N40   1.366       .  A
C39         C256   1.467       .  S
N40          C41   1.366       .  A
C41          N42   1.353       .  A
C41         C260   1.482       .  S
C43          N44   1.366       .  A
C43          N48   1.372       .  A
C43         C253   1.497       .  S
N44          C45   1.363       .  A
C45          N46   1.349       .  A
C45         C261   1.483       .  S
N46          C47   1.353       .  A
C47          N48   1.368       .  A
C47         C249   1.479       .  S
C49          N50   1.364       .  A
C49          N54   1.358       .  A
C49         C237   1.475       .  S
N50          C51   1.357       .  A
C51          N52   1.357       .  A
C51         C240   1.478       .  S
N52          C53   1.351       .  A
C53          N54   1.358       .  A
C53         C244   1.470       .  S
C55          N56   1.365       .  A
C55          N60   1.356       .  A
C55         C229   1.479       .  S
N56          C57   1.360       .  A
C57          N58   1.352       .  A
C57         C241   1.468       .  S
N58          C59   1.350       .  A
C59          N60   1.359       .  A
C59         C232   1.465       .  S
C61          N62   1.355       .  A
C61          N66   1.357       .  A
C61         C224   1.479       .  S
N62          C63   1.357       .  A
C63          N64   1.372       .  A
C63         C216   1.497       .  S
N64          C65   1.375       .  A
C65          N66   1.362       .  A
C65         C221   1.492       .  S
C67          N68   1.353       .  A
C67          N72   1.368       .  A
C67         C212   1.479       .  S
N68          C69   1.350       .  A
C69          N70   1.365       .  A
C69         C209   1.483       .  S
N70          C71   1.364       .  A
C71          N72   1.371       .  A
C71         C217   1.501       .  S
N73          N74   1.324       .  A
N73          N79   1.316       .  A
N73        Mn102   2.221       .  S
N74          C81   1.357       .  A
N75          N77   1.315       .  A
N75          N76   1.328       .  A
N75         Mn91   2.242       .  S
N76          C82   1.362       .  A
N77          N78   1.312       .  A
N77        Mn102   2.154       .  S
N78          C82   1.341       .  A
N79          N80   1.319       .  A
N79         Mn91   2.194       .  S
N80          C81   1.349       .  A
C81         C309   1.476       .  S
C82         C228   1.468       .  S
N83          N89   1.316       .  A
N83          N84   1.316       .  A
N83        Mn113   2.187       .  S
N84          C92   1.346       .  A
N85          N86   1.323       .  A
N85          N87   1.315       .  A
N85        Mn418   2.209   1_554  S
N86          C93   1.355       .  A
N87          N88   1.317       .  A
N87        Mn113   2.183       .  S
N88          C93   1.348       .  A
N89          N90   1.324       .  A
N89        Mn418   2.214   1_554  S
N90          C92   1.357       .  A
Mn91        N412   2.233       .  S
Mn91        N416   2.203       .  S
Mn91       Cl115   2.565       .  S
C92         C236   1.469       .  S
C93         C317   1.468       .  S
N94          N95   1.321       .  A
N94         N100   1.319       .  A
N94        Mn102   2.216       .  S
N95         C103   1.350       .  A
N96          N98   1.315       .  A
N96          N97   1.326       .  A
N96        Mn114   2.233       .  S
N97         C104   1.359       .  A
N98          N99   1.313       .  A
N98        Mn102   2.155       .  S
N99         C104   1.342       .  A
N100        N101   1.329       .  A
N100       Mn114   2.245       .  S
N101        C103   1.361       .  A
Mn102      Cl115   2.535       .  S
C103        C220   1.493       .  S
C104        C268   1.464       .  S
N105        N106   1.319       .  A
N105        N111   1.316   1_554  A
N105       Mn113   2.193       .  S
N106        C116   1.352       .  A
N107        N108   1.331   1_556  A
N107        N109   1.318   1_556  A
N107       Mn441   2.255       .  S
N108        C117   1.365       .  A
N109        N110   1.312       .  A
N109       Mn113   2.165       .  S
N110        C117   1.340       .  A
N111        N112   1.321       .  A
N111       Mn441   2.203       .  S
N112        C116   1.352   1_556  A
Mn113      Cl442   2.521   1_554  S
Mn114       N434   2.252       .  S
Mn114       N438   2.209       .  S
Mn114      Cl115   2.571       .  S
Cl115      Mn440   2.536       .  S
C116        C281   1.469       .  S
C117        C208   1.475       .  S
N118        N119   1.328       .  A
N118        N124   1.316       .  A
N118       Mn147   2.240   1_455  S
N119        C126   1.360       .  A
N120        N122   1.314       .  A
N120        N121   1.318       .  A
N120       Mn463   2.186   1_554  S
N121        C127   1.348       .  A
N122        N123   1.321       .  A
N122       Mn147   2.202       .  S
N123        C127   1.355       .  A
N124        N125   1.319       .  A
N124       Mn463   2.189   1_454  S
N125        C126   1.348       .  A
C126        C288   1.484       .  S
C127        C245   1.468       .  S
N128        N134   1.314       .  A
N128        N129   1.321       .  A
N128       Mn158   2.210       .  S
N129        C137   1.356       .  A
N130        N131   1.321       .  A
N130        N132   1.314       .  A
N130       Mn136   2.203   1_455  S
N131        C138   1.355       .  A
N132        N133   1.313       .  A
N132       Mn158   2.160   1_455  S
N133        C138   1.343       .  A
N134        N135   1.314       .  A
N134       Mn136   2.159       .  S
N135        C137   1.344       .  A
Mn136       N447   2.203       .  S
Mn136       N451   2.174   1_655  S
Mn136      Cl160   2.557       .  S
C137        C233   1.460       .  S
C138        C297   1.456       .  S
N139        N140   1.329       .  A
N139        N145   1.318       .  A
N139       Mn147   2.241       .  S
N140        C148   1.361       .  A
N141        N143   1.316   1_455  A
N141        N142   1.323       .  A
N141       Mn486   2.212   1_454  S
N142        C149   1.356       .  A
N143        N144   1.316   1_655  A
N143       Mn147   2.182       .  S
N144        C149   1.347       .  A
N145        N146   1.322       .  A
N145       Mn486   2.221   1_554  S
N146        C148   1.352       .  A
Mn147      Cl487   2.571   1_554  S
C148        C252   1.494       .  S
C149        C284   1.465       .  S
N150        N151   1.319       .  A
N150        N156   1.316       .  A
N150       Mn158   2.202   1_455  S
N151        C161   1.353       .  A
N152        N153   1.325       .  A
N152        N154   1.314       .  A
N152       Mn159   2.222       .  S
N153        C162   1.359       .  A
N154        N155   1.310       .  A
N154       Mn158   2.147       .  S
N155        C162   1.340       .  A
N156        N157   1.319       .  A
N156       Mn159   2.191   1_455  S
N157        C161   1.350       .  A
Mn158      Cl160   2.523       .  S
Mn159       N468   2.225   1_655  S
Mn159       N472   2.203       .  S
Mn159      Cl160   2.556       .  S
Cl160      Mn474   2.526       .  S
C161        C273   1.466       .  S
C162        C264   1.456       .  S
N163        N164   1.320       .  A
N163        N169   1.315       .  A
N163       Mn192   2.202       .  S
N164        C171   1.353       .  A
N165        N167   1.318       .  A
N165        N166   1.324       .  A
N165       Mn508   2.215   1_544  S
N166        C172   1.354       .  A
N167        N168   1.321       .  A
N167       Mn192   2.222   1_545  S
N168        C172   1.356       .  A
N169        N170   1.322       .  A
N169       Mn508   2.205   1_554  S
N170        C171   1.353       .  A
C171        C320   1.476       .  S
C172        C248   1.488       .  S
N173        N179   1.314       .  A
N173        N174   1.321       .  A
N173       Mn203   2.189   1_545  S
N174        C182   1.350       .  A
N175        N176   1.324       .  A
N175        N177   1.316       .  A
N175       Mn181   2.219       .  S
N176        C183   1.357       .  A
N177        N178   1.317       .  A
N177       Mn203   2.191       .  S
N178        C183   1.348       .  A
N179        N180   1.318       .  A
N179       Mn181   2.202   1_545  S
N180        C182   1.354       .  A
Mn181       N492   2.216   1_565  S
Mn181       N496   2.197       .  S
Mn181      Cl205   2.547       .  S
C182        C257   1.474       .  S
C183        C313   1.471       .  S
N184        N185   1.323       .  A
N184        N190   1.316       .  A
N184       Mn192   2.203   1_545  S
N185        C193   1.352       .  A
N186        N188   1.319       .  A
N186        N187   1.324       .  A
N186       Mn531   2.214   1_554  S
N187        C194   1.355       .  A
N188        N189   1.320       .  A
N188       Mn192   2.219       .  S
N189        C194   1.353       .  A
N190        N191   1.322       .  A
N190       Mn531   2.220   1_544  S
N191        C193   1.356       .  A
Mn192      Cl532   2.540   1_554  S
C193        C213   1.485       .  S
C194        C293   1.477       .  S
N195        N196   1.317       .  A
N195        N201   1.316       .  A
N195       Mn203   2.181       .  S
N196        C206   1.348       .  A
N197        N198   1.326       .  A
N197        N199   1.317       .  A
N197       Mn204   2.237   1_545  S
N198        C207   1.358       .  A
N199        N200   1.317       .  A
N199       Mn203   2.187   1_545  S
N200        C207   1.350       .  A
N201        N202   1.321       .  A
N201       Mn204   2.207       .  S
N202        C206   1.353       .  A
Mn203      Cl205   2.548       .  S
Mn204       N513   2.235       .  S
Mn204       N517   2.197   1_565  S
Mn204      Cl205   2.551       .  S
Cl205      Mn519   2.553       .  S
C206        C304   1.466       .  S
C207        C225   1.483       .  S
C208        C209   1.334       .  D
C208        H210   1.088       .  S
C209        H211   1.087       .  S
C212        C213   1.342       .  D
C212        H214   1.087       .  S
C213        H215   1.087       .  S
C216        C217   1.347       .  D
C216        H218   1.087       .  S
C217        H219   1.086       .  S
C220        C221   1.344       .  D
C220        H222   1.086       .  S
C221        H223   1.086       .  S
C224        C225   1.349       .  D
C224        H226   1.087       .  S
C225        H227   1.086       .  S
C228        C229   1.335       .  D
C228        H230   1.088       .  S
C229        H231   1.087       .  S
C232        C233   1.333       .  D
C232        H234   1.087       .  S
C233        H235   1.087       .  S
C236        C237   1.338       .  D
C236        H238   1.087       .  S
C237        H239   1.087       .  S
C240        C241   1.343       .  D
C240        H242   1.086       .  S
C241        H243   1.087       .  S
C244        C245   1.337       .  D
C244        H246   1.087       .  S
C245        H247   1.087       .  S
C248        C249   1.342       .  D
C248        H250   1.086       .  S
C249        H251   1.087       .  S
C252        C253   1.348       .  D
C252        H254   1.086       .  S
C253        H255   1.086       .  S
C256        C257   1.338       .  D
C256        H258   1.087       .  S
C257        H259   1.086       .  S
C260        C261   1.339       .  D
C260        H262   1.087       .  S
C261        H263   1.087       .  S
C264        C265   1.332       .  D
C264        H266   1.087       .  S
C265        H267   1.086       .  S
C268        C269   1.336       .  D
C268        H270   1.088       .  S
C269        H271   1.087       .  S
C272        C273   1.341       .  D
C272        H274   1.087       .  S
C273        H275   1.087       .  S
C276        C277   1.343       .  D
C276        H278   1.087       .  S
C277        H279   1.087       .  S
C280        C281   1.343       .  D
C280        H282   1.087       .  S
C281        H283   1.086       .  S
C284        C285   1.339       .  D
C284        H286   1.087       .  S
C285        H287   1.087       .  S
C288        C289   1.342       .  D
C288        H290   1.086       .  S
C289        H291   1.087       .  S
C292        C293   1.349       .  D
C292        H294   1.085       .  S
C293        H295   1.086       .  S
C296        C297   1.333       .  D
C296        H298   1.086       .  S
C297        H299   1.086       .  S
C300        C301   1.341       .  D
C300        H302   1.087       .  S
C301        H303   1.087       .  S
C304        C305   1.347       .  D
C304        H306   1.086       .  S
C305        H307   1.087       .  S
C308        C309   1.342       .  D
C308        H310   1.087       .  S
C309        H311   1.086       .  S
C312        C313   1.342       .  D
C312        H314   1.086       .  S
C313        H315   1.087       .  S
C316        C317   1.342       .  D
C316        H318   1.087       .  S
C317        H319   1.088       .  S
C320        C321   1.345       .  D
C320        H322   1.086       .  S
C321        H323   1.087       .  S
C324        C325   1.343       .  D
C324        H326   1.086       .  S
C325        H327   1.086       .  S
C328        N329   1.361       .  A
C328        N333   1.360       .  A
C328        C648   1.478       .  S
N329        C330   1.356       .  A
C330        N331   1.361       .  A
C330        C643   1.479       .  S
N331        C332   1.357       .  A
C332        N333   1.361       .  A
C332        C651   1.482       .  S
C334        N335   1.359       .  A
C334        N339   1.362       .  A
C334        C639   1.487       .  S
N335        C336   1.355       .  A
C336        N337   1.361       .  A
C336        C652   1.481       .  S
N337        C338   1.362       .  A
C338        N339   1.366       .  A
C338        C635   1.487       .  S
C340        N341   1.361       .  A
C340        N345   1.358       .  A
C340        C632   1.481       .  S
N341        C342   1.353       .  A
C342        N343   1.362       .  A
C342        C628   1.482       .  S
N343        C344   1.358       .  A
C344        N345   1.363       .  A
C344        C623   1.481       .  S
C346        N347   1.370       .  A
C346        N351   1.358       .  A
C346        C619   1.481       .  S
N347        C348   1.367       .  A
C348        N349   1.350       .  A
C348        C627   1.473       .  S
N349        C350   1.347       .  A
C350        N351   1.356       .  A
C350        C616   1.463       .  S
C352        N353   1.364       .  A
C352        N357   1.358       .  A
C352        C612   1.489       .  S
N353        C354   1.368       .  A
C354        N355   1.363       .  A
C354        C607   1.492       .  S
N355        C356   1.363       .  A
C356        N357   1.353       .  A
C356        C604   1.483       .  S
C358        N359   1.364       .  A
C358        N363   1.361       .  A
C358        C599   1.482       .  S
N359        C360   1.364       .  A
C360        N361   1.354       .  A
C360        C603   1.483       .  S
N361        C362   1.358       .  A
C362        N363   1.355       .  A
C362        C596   1.476       .  S
C364        N365   1.359       .  A
C364        N369   1.364       .  A
C364        C592   1.480       .  S
N365        C366   1.351       .  A
C366        N367   1.355       .  A
C366        C583   1.469       .  S
N367        C368   1.353       .  A
C368        N369   1.365       .  A
C368        C587   1.478       .  S
C370        N371   1.356       .  A
C370        N375   1.355       .  A
C370        C580   1.471       .  S
N371        C372   1.351       .  A
C372        N373   1.363       .  A
C372        C588   1.478       .  S
N373        C374   1.363       .  A
C374        N375   1.361       .  A
C374        C576   1.479       .  S
C376        N377   1.367       .  A
C376        N381   1.369       .  A
C376        C564   1.492       .  S
N377        C378   1.363       .  A
C378        N379   1.348       .  A
C378        C567   1.477       .  S
N379        C380   1.349       .  A
C380        N381   1.364       .  A
C380        C571   1.470       .  S
C382        N383   1.358       .  A
C382        N387   1.353       .  A
C382        C556   1.478       .  S
N383        C384   1.352       .  A
C384        N385   1.364       .  A
C384        C568   1.480       .  S
N385        C386   1.362       .  A
C386        N387   1.361       .  A
C386        C559   1.481       .  S
C388        N389   1.354       .  A
C388        N393   1.357       .  A
C388        C551   1.478       .  S
N389        C390   1.357       .  A
C390        N391   1.369       .  A
C390        C543   1.491       .  S
N391        C392   1.372       .  A
C392        N393   1.361       .  A
C392        C548   1.488       .  S
C394        N395   1.351       .  A
C394        N399   1.363       .  A
C394        C539   1.469       .  S
N395        C396   1.349       .  A
C396        N397   1.366       .  A
C396        C536   1.477       .  S
N397        C398   1.364       .  A
C398        N399   1.367       .  A
C398        C544   1.496       .  S
N400        N401   1.327       .  A
N400        N406   1.316       .  A
N400       Mn429   2.231       .  S
N401        C408   1.359       .  A
N402        N404   1.316       .  A
N402        N403   1.328       .  A
N402       Mn418   2.227       .  S
N403        C409   1.360       .  A
N404        N405   1.310       .  A
N404       Mn429   2.158       .  S
N405        C409   1.340       .  A
N406        N407   1.318       .  A
N406       Mn418   2.194       .  S
N407        C408   1.348       .  A
C408        C636   1.481       .  S
C409        C555   1.460       .  S
N410        N416   1.318       .  A
N410        N411   1.327       .  A
N410       Mn440   2.242       .  S
N411        C419   1.359       .  A
N412        N413   1.327       .  A
N412        N414   1.315       .  A
N413        C420   1.359       .  A
N414        N415   1.314       .  A
N414       Mn440   2.168       .  S
N415        C420   1.345       .  A
N416        N417   1.320       .  A
N417        C419   1.351       .  A
Mn418      Cl442   2.570       .  S
C419        C563   1.487       .  S
C420        C644   1.471       .  S
N421        N422   1.320       .  A
N421        N427   1.319       .  A
N421       Mn429   2.214       .  S
N422        C430   1.350       .  A
N423        N425   1.316       .  A
N423        N424   1.325       .  A
N423       Mn441   2.228       .  S
N424        C431   1.358       .  A
N425        N426   1.314       .  A
N425       Mn429   2.163       .  S
N426        C431   1.344       .  A
N427        N428   1.328       .  A
N427       Mn441   2.239       .  S
N428        C430   1.361       .  A
Mn429      Cl442   2.527       .  S
C430        C547   1.488       .  S
C431        C595   1.464       .  S
N432        N433   1.328       .  A
N432        N438   1.318       .  A
N432       Mn440   2.241       .  S
N433        C443   1.360       .  A
N434        N435   1.330       .  A
N434        N436   1.318       .  A
N435        C444   1.364       .  A
N436        N437   1.312       .  A
N436       Mn440   2.156       .  S
N437        C444   1.338       .  A
N438        N439   1.320       .  A
N439        C443   1.351       .  A
Mn441      Cl442   2.574       .  S
C443        C608   1.487       .  S
C444        C535   1.471       .  S
N445        N446   1.318       .  A
N445        N451   1.315       .  A
N445       Mn474   2.203   1_455  S
N446        C453   1.354       .  A
N447        N449   1.314       .  A
N447        N448   1.324       .  A
N448        C454   1.353       .  A
N449        N450   1.319       .  A
N449       Mn474   2.202       .  S
N450        C454   1.354       .  A
N451        N452   1.318       .  A
N452        C453   1.348       .  A
C453        C615   1.465       .  S
C454        C572   1.482       .  S
N455        N461   1.316       .  A
N455        N456   1.325       .  A
N455       Mn485   2.217       .  S
N456        C464   1.357       .  A
N457        N458   1.317       .  A
N457        N459   1.315       .  A
N457       Mn463   2.185   1_455  S
N458        C465   1.347       .  A
N459        N460   1.326       .  A
N459       Mn485   2.222   1_455  S
N460        C465   1.358       .  A
N461        N462   1.316       .  A
N461       Mn463   2.186       .  S
N462        C464   1.347       .  A
Mn463      Cl487   2.525       .  S
C464        C560   1.469       .  S
C465        C624   1.474       .  S
N466        N467   1.316       .  A
N466        N472   1.315       .  A
N466       Mn474   2.189       .  S
N467        C475   1.348       .  A
N468        N470   1.316       .  A
N468        N469   1.327       .  A
N469        C476   1.357       .  A
N470        N471   1.318       .  A
N470       Mn474   2.201   1_455  S
N471        C476   1.350       .  A
N472        N473   1.322       .  A
N473        C475   1.354       .  A
C475        C579   1.463       .  S
C476        C611   1.478       .  S
N477        N478   1.322       .  A
N477        N483   1.318       .  A
N477       Mn485   2.207   1_455  S
N478        C488   1.353       .  A
N479        N480   1.317       .  A
N479        N481   1.317       .  A
N479       Mn486   2.200       .  S
N480        C489   1.349       .  A
N481        N482   1.323       .  A
N481       Mn485   2.209       .  S
N482        C489   1.355       .  A
N483        N484   1.321       .  A
N483       Mn486   2.215   1_455  S
N484        C488   1.352       .  A
Mn485      Cl487   2.577       .  S
Mn486      Cl487   2.527       .  S
C488        C600   1.475       .  S
C489        C591   1.469       .  S
N490        N491   1.322       .  A
N490        N496   1.316       .  A
N490       Mn519   2.208       .  S
N491        C498   1.354       .  A
N492        N494   1.317       .  A
N492        N493   1.321       .  A
N493        C499   1.354       .  A
N494        N495   1.320       .  A
N494       Mn519   2.197   1_545  S
N495        C499   1.352       .  A
N496        N497   1.320       .  A
N497        C498   1.350       .  A
C498        C647   1.473       .  S
C499        C575   1.474       .  S
N500        N506   1.313       .  A
N500        N501   1.314       .  A
N500       Mn530   2.165   1_545  S
N501        C509   1.345       .  A
N502        N503   1.327       .  A
N502        N504   1.316       .  A
N502       Mn508   2.225       .  S
N503        C510   1.358       .  A
N504        N505   1.317       .  A
N504       Mn530   2.198       .  S
N505        C510   1.349       .  A
N506        N507   1.323       .  A
N506       Mn508   2.209   1_545  S
N507        C509   1.356       .  A
Mn508      Cl532   2.563       .  S
C509        C584   1.461       .  S
C510        C640   1.476       .  S
N511        N512   1.323       .  A
N511        N517   1.316       .  A
N511       Mn519   2.207   1_545  S
N512        C520   1.353       .  A
N513        N515   1.318       .  A
N513        N514   1.325       .  A
N514        C521   1.359       .  A
N515        N516   1.319       .  A
N515       Mn519   2.199       .  S
N516        C521   1.349       .  A
N517        N518   1.317       .  A
N518        C520   1.352       .  A
C520        C540   1.477       .  S
C521        C620   1.481       .  S
N522        N523   1.312       .  A
N522        N528   1.314       .  A
N522       Mn530   2.161       .  S
N523        C533   1.342       .  A
N524        N525   1.324       .  A
N524        N526   1.317       .  A
N524       Mn531   2.220   1_545  S
N525        C534   1.355       .  A
N526        N527   1.319       .  A
N526       Mn530   2.199   1_545  S
N527        C534   1.352       .  A
N528        N529   1.328       .  A
N528       Mn531   2.231       .  S
N529        C533   1.360       .  A
Mn530      Cl532   2.530       .  S
Mn531      Cl532   2.562       .  S
C533        C631   1.467       .  S
C534        C552   1.480       .  S
C535        C536   1.332       .  D
C535        H537   1.088       .  S
C536        H538   1.087       .  S
C539        C540   1.341       .  D
C539        H541   1.088       .  S
C540        H542   1.087       .  S
C543        C544   1.347       .  D
C543        H545   1.087       .  S
C544        H546   1.086       .  S
C547        C548   1.343       .  D
C547        H549   1.086       .  S
C548        H550   1.086       .  S
C551        C552   1.345       .  D
C551        H553   1.087       .  S
C552        H554   1.086       .  S
C555        C556   1.336       .  D
C555        H557   1.087       .  S
C556        H558   1.087       .  S
C559        C560   1.343       .  D
C559        H561   1.087       .  S
C560        H562   1.087       .  S
C563        C564   1.347       .  D
C563        H565   1.086       .  S
C564        H566   1.086       .  S
C567        C568   1.337       .  D
C567        H569   1.087       .  S
C568        H570   1.087       .  S
C571        C572   1.341       .  D
C571        H573   1.087       .  S
C572        H574   1.086       .  S
C575        C576   1.346       .  D
C575        H577   1.086       .  S
C576        H578   1.087       .  S
C579        C580   1.340       .  D
C579        H581   1.088       .  S
C580        H582   1.087       .  S
C583        C584   1.336       .  D
C583        H585   1.087       .  S
C584        H586   1.088       .  S
C587        C588   1.338       .  D
C587        H589   1.087       .  S
C588        H590   1.087       .  S
C591        C592   1.345       .  D
C591        H593   1.086       .  S
C592        H594   1.086       .  S
C595        C596   1.338       .  D
C595        H597   1.088       .  S
C596        H598   1.087       .  S
C599        C600   1.347       .  D
C599        H601   1.086       .  S
C600        H602   1.086       .  S
C603        C604   1.342       .  D
C603        H605   1.087       .  S
C604        H606   1.087       .  S
C607        C608   1.346       .  D
C607        H609   1.086       .  S
C608        H610   1.086       .  S
C611        C612   1.349       .  D
C611        H613   1.085       .  S
C612        H614   1.085       .  S
C615        C616   1.336       .  D
C615        H617   1.086       .  S
C616        H618   1.087       .  S
C619        C620   1.340       .  D
C619        H621   1.087       .  S
C620        H622   1.087       .  S
C623        C624   1.341       .  D
C623        H625   1.087       .  S
C624        H626   1.086       .  S
C627        C628   1.338       .  D
C627        H629   1.087       .  S
C628        H630   1.086       .  S
C631        C632   1.339       .  D
C631        H633   1.088       .  S
C632        H634   1.087       .  S
C635        C636   1.343       .  D
C635        H637   1.087       .  S
C636        H638   1.086       .  S
C639        C640   1.346       .  D
C639        H641   1.085       .  S
C640        H642   1.086       .  S
C643        C644   1.339       .  D
C643        H645   1.087       .  S
C644        H646   1.088       .  S
C647        C648   1.343       .  D
C647        H649   1.087       .  S
C648        H650   1.087       .  S
C651        C652   1.344       .  D
C651        H653   1.086       .  S
C652        H654   1.086       .  S
