geometry optimzed in LAMMPS
_audit_creation_date              2020-12-01 
_audit_creation_method            'lammps2cif' 
_symmetry_space_group_name_H-M    'P1' 
_symmetry_Int_Tables_number       1 
_symmetry_cell_setting            triclinic 
loop_ 
_symmetry_equiv_pos_as_xyz 
  x,y,z 
_cell_length_a                    43.04514599 
_cell_length_b                    43.328404361177945 
_cell_length_c                    57.78601433488092 
_cell_angle_alpha                 90.05165634640213 
_cell_angle_beta                  90.05581094860732 
_cell_angle_gamma                 120.35352146489959 
loop_ 
_atom_site_label 
_atom_site_type_symbol 
_atom_site_fract_x 
_atom_site_fract_y 
_atom_site_fract_z 
_atom_site_charge 
O1          O  0.11010799  0.33515030  0.27086795    -0.81500
C2          C  0.23983699  0.36656058  0.22581201     0.97900
O3          O  0.23441802  0.38853508  0.23702534    -0.70600
O4          O  0.17816469  0.39293547  0.22347203    -0.74200
Al5        Al  0.19279258  0.38418336  0.25258262     1.49000
C6          C  0.14623845  0.37991648  0.21644935     0.93200
O7          O  0.12277065  0.29173289  0.21718490    -0.80400
O8          O  0.15824771  0.28489474  0.27889372    -0.73900
Al9        Al  0.11935172  0.31487439  0.24447754     1.90100
O10         O  0.15668308  0.27326476  0.23248655    -0.73000
O11         O  0.22406547  0.34138421  0.27475645    -0.72900
O12         O  0.21891517  0.33324657  0.22785823    -0.78500
O13         O  0.21070193  0.38255132  0.28224032    -0.76700
O14         O  0.16655342  0.33668473  0.25005371    -1.12900
O15         O  0.15705848  0.38945501  0.26855749    -0.72100
C16         C  0.12656800  0.36763378  0.27675225     0.98700
C17         C  0.13457000  0.27033521  0.21709671     0.95100
Al18       Al  0.18764863  0.31051656  0.25324355     1.55600
O19         O  0.12123081  0.35113965  0.22476310    -0.76700
C20         C  0.22856353  0.36764026  0.28674737     0.99200
C21         C  0.12427562  0.26638146  0.27791931     0.94100
O22         O  0.10702529  0.27372193  0.26332253    -0.82000
C23         C  0.99764788  0.49950090  0.09010957     0.86800
C24         C  0.01912716  0.48282294  0.10021554    -0.53400
C25         C  0.02089115  0.48267086  0.12391669     0.09800
C26         C  0.00035700  0.49924128  0.13539427     0.20700
C27         C  0.46083436  0.47938274  0.10156205    -0.54100
C28         C  0.46183907  0.47895839  0.12498530     0.09900
C29         C  0.01633573  0.03700957  0.10151245    -0.53700
C30         C  0.01805231  0.03731984  0.12521780     0.10400
H31         H  0.03244135  0.47254214  0.08935924     0.14900
H32         H  0.00148163  0.99890621  0.15441905     0.00700
H33         H  0.43573878  0.46643562  0.09186482     0.15300
H34         H  0.02911621  0.06164806  0.09187948     0.15000
C35         C  0.50462426  0.00520997  0.40904468     0.86800
C36         C  0.01835396  0.04135742  0.39630265    -0.53400
C37         C  0.01536072  0.03867581  0.37263912     0.09800
C38         C  0.49952037  0.00011834  0.36383070     0.20700
C39         C  0.46647615  0.48047993  0.39980674    -0.54100
C40         C  0.46280299  0.47892445  0.37624759     0.09900
C41         C  0.02766437  0.49143750  0.39796446    -0.53700
C42         C  0.02394040  0.48716624  0.37469170     0.10400
H43         H  0.03153260  0.06722780  0.40480897     0.14900
H44         H  0.49803627  0.99875046  0.34477735     0.00700
H45         H  0.44398127  0.46555288  0.41144152     0.15300
H46         H  0.04541469  0.48510618  0.40756330     0.15000
O47         O  0.38721814  0.16488448  0.77865210    -0.81500
C48         C  0.26987330  0.13237580  0.71765499     0.97900
O49         O  0.27717754  0.11168304  0.72849151    -0.70600
O50         O  0.33883540  0.11361218  0.72406818    -0.74200
Al51       Al  0.31262604  0.11660941  0.74978361     1.49000
C52         C  0.37253260  0.12989976  0.72132076     0.93200
O53         O  0.39069071  0.21771375  0.72500711    -0.80400
O54         O  0.33416506  0.21495827  0.77718022    -0.73900
Al55       Al  0.38510802  0.18923885  0.75173193     1.90100
O56         O  0.34551797  0.22629317  0.73091480    -0.73000
O57         O  0.27321617  0.15576109  0.76825466    -0.72900
O58         O  0.28664474  0.16543937  0.72202231    -0.78500
O59         O  0.28256768  0.11167776  0.77558345    -0.76700
O60         O  0.33666870  0.16469248  0.75036770    -1.12900
O61         O  0.34287158  0.11106446  0.77079056    -0.72100
C62         C  0.37083339  0.13156856  0.78203612     0.98700
C63         C  0.37487937  0.23505901  0.72112234     0.95100
Al64       Al  0.31224313  0.18831654  0.74964469     1.55600
O65         O  0.39229461  0.15838056  0.73220845    -0.76700
C66         C  0.26489399  0.12729785  0.77883466     0.99200
C67         C  0.36743804  0.23274106  0.78155229     0.94100
O68         O  0.38890193  0.22551124  0.77156372    -0.82000
C69         C  0.99930441  0.49698990  0.91214123     0.86800
C70         C  0.47804356  0.46017636  0.90071521    -0.53400
C71         C  0.47883853  0.46029533  0.87708638     0.09800
C72         C  0.00058901  0.49828743  0.86670844     0.20700
C73         C  0.03743556  0.01451605  0.90145172    -0.54100
C74         C  0.03832313  0.01485739  0.87779089     0.09100
C75         C  0.48423843  0.01921116  0.90122857    -0.53700
C76         C  0.48396269  0.01916732  0.87760155     0.10400
H77         H  0.46343775  0.43573034  0.91072151     0.14900
H78         H  0.00127648  0.49909823  0.84752080     0.00700
H79         H  0.06200950  0.02743141  0.91153702     0.15300
H80         H  0.47482532  0.03416819  0.91111285     0.15000
C81         C  0.00142273  0.49720271  0.58761072     0.86800
C82         C  0.48199488  0.01446087  0.59938685    -0.53400
C83         C  0.48413007  0.01586013  0.62303109     0.09800
C84         C  0.00560855  0.49911640  0.63296782     0.20700
C85         C  0.04007459  0.01688471  0.59739662    -0.54100
C86         C  0.04259040  0.01887842  0.62087362     0.09900
C87         C  0.48545575  0.46000237  0.59910767    -0.53700
C88         C  0.48696626  0.46078577  0.62283752     0.10400
H89         H  0.46745104  0.02457528  0.58962612     0.14900
H90         H  0.00769196  0.50018885  0.65212376     0.00700
H91         H  0.06395383  0.02759048  0.58667505     0.15300
H92         H  0.47479630  0.43511307  0.58959652     0.15000
C93         C  0.41978865  0.38773065  0.83297062    -0.05100
C94         C  0.42535245  0.35962516  0.83960167     0.09000
C95         C  0.44914575  0.36473397  0.85785995    -0.02500
C96         C  0.46709596  0.39774457  0.86965606    -0.00800
C97         C  0.46110597  0.42606498  0.86343968    -0.04400
C98         C  0.43798292  0.42100291  0.84451509     0.02600
C99         C  0.41018832  0.32647509  0.82518181     0.09500
C100        C  0.45619982  0.33631791  0.86386884     0.35400
C101        C  0.43344134  0.44986860  0.83599189     0.38800
C102        C  0.42837644  0.32683311  0.80487060    -0.04700
C103        C  0.41462742  0.29613413  0.79086237     0.02400
C104        C  0.38249310  0.26437744  0.79721549    -0.04300
C105        C  0.36479533  0.26385023  0.81795123    -0.00600
C106        C  0.37831450  0.29506016  0.83168324    -0.03100
C107        C  0.46117980  0.35925096  0.79822640     0.36100
C108        C  0.33370132  0.23086090  0.82570090     0.39700
C109        C  0.43344139  0.29801069  0.76957684     0.38900
C110        C  0.35920364  0.29517160  0.85228844     0.35800
C111        C  0.39587318  0.38249285  0.81372832     0.36500
C112        C  0.49408974  0.40334672  0.88683871     0.39700
N113        N  0.44874856  0.29977457  0.75271678    -0.38300
N114        N  0.48721512  0.38517985  0.79296667    -0.39900
N115        N  0.30913977  0.20438117  0.83194333    -0.37700
N116        N  0.34384677  0.29542574  0.86864677    -0.40100
N117        N  0.46184373  0.31364833  0.86857470    -0.39800
N118        N  0.01576339  0.40770724  0.90038345    -0.37500
N119        N  0.42960727  0.47220715  0.82802642    -0.38500
N120        N  0.37685046  0.37819501  0.79834791    -0.40200
C121        C  0.11130956  0.02851463  0.83408726    -0.05100
C122        C  0.13832949  0.06412896  0.83861145     0.09000
C123        C  0.13287865  0.08354566  0.85613304    -0.02500
C124        C  0.10060807  0.06746942  0.86909565    -0.00800
C125        C  0.07298917  0.03179710  0.86433939    -0.04400
C126        C  0.07876076  0.01247655  0.84672142     0.02600
C127        C  0.17158410  0.08172813  0.82385416     0.09500
C128        C  0.16020418  0.12052614  0.86032039     0.35400
C129        C  0.05180428  0.47578070  0.84157480     0.38800
C130        C  0.17048843  0.09597883  0.80215256    -0.04700
C131        C  0.20093547  0.11098336  0.78757551     0.02400
C132        C  0.23299864  0.11181520  0.79456143    -0.04300
C133        C  0.23428703  0.09830038  0.81659446    -0.00600
C134        C  0.20373708  0.08347547  0.83120230    -0.03100
C135        C  0.13782281  0.09524577  0.79488828     0.36100
C136        C  0.26745685  0.10086323  0.82460883     0.39700
C137        C  0.19867958  0.12482257  0.76514232     0.38900
C138        C  0.20540895  0.07033329  0.85394982     0.35800
C139        C  0.11707277  0.00837992  0.81621272     0.36500
C140        C  0.09508234  0.08865657  0.88629900     0.39700
N141        N  0.19676841  0.13599163  0.74734244    -0.38300
N142        N  0.11174374  0.09466196  0.78919926    -0.39900
N143        N  0.29405333  0.10310272  0.83091222    -0.37700
N144        N  0.20676955  0.06006910  0.87218829    -0.40100
N145        N  0.18203020  0.15005911  0.86355314    -0.39800
N146        N  0.09054032  0.10561169  0.89989501    -0.37500
N147        N  0.03113085  0.44651315  0.83670254    -0.38500
N148        N  0.12170622  0.49235391  0.80196302    -0.40200
C149        C  0.41376133  0.11523566  0.83493235    -0.05100
C150        C  0.41573225  0.08522948  0.82753435     0.09000
C151        C  0.40232371  0.07008970  0.80562102    -0.02500
C152        C  0.38710232  0.08487531  0.79103062    -0.00800
C153        C  0.38550563  0.11539853  0.79817337    -0.04400
C154        C  0.39863727  0.13032149  0.82028842     0.02600
C155        C  0.43360851  0.07018425  0.84204823     0.09500
C156        C  0.40525162  0.03977491  0.79780496     0.35400
C157        C  0.39575432  0.16055633  0.82819579     0.38800
C158        C  0.41269550  0.03915465  0.85529859    -0.04700
C159        C  0.42904924  0.02182179  0.86614056     0.02400
C160        C  0.46667447  0.03603145  0.86436517    -0.04300
C161        C  0.48736471  0.06670049  0.85064651    -0.00600
C162        C  0.47090400  0.08390672  0.83974660    -0.03100
C163        C  0.37411354  0.02443501  0.85708248     0.36100
C164        C  0.02523909  0.08006940  0.84673924     0.39700
C165        C  0.40650939  0.48708422  0.87666353     0.38900
C166        C  0.49211301  0.11534602  0.82556760     0.35800
C167        C  0.42776036  0.13076715  0.85747689     0.36500
C168        C  0.37432294  0.06907992  0.76831309     0.39700
N169        N  0.38809584  0.45871226  0.88406521    -0.38300
N170        N  0.34334164  0.51270270  0.85849777    -0.39900
N171        N  0.05536353  0.09157392  0.84253115    -0.37700
N172        N  0.00882166  0.14043804  0.81424775    -0.40100
N173        N  0.40774909  0.01573460  0.79156435    -0.39800
N174        N  0.36410292  0.05608816  0.75031762    -0.37500
N175        N  0.39328861  0.18462691  0.83442147    -0.38500
N176        N  0.43905801  0.14320695  0.87545305    -0.40200
C177        C  0.40439410  0.32881378  0.69854062    -0.05100
C178        C  0.42331204  0.33026061  0.67833112     0.09000
C179        C  0.42625407  0.30041566  0.67189790    -0.02500
C180        C  0.41044386  0.26917311  0.68568171    -0.00800
C181        C  0.39136599  0.26752950  0.70602366    -0.04400
C182        C  0.38830431  0.29768004  0.71225835     0.02600
C183        C  0.43997111  0.36341160  0.66378070     0.09500
C184        C  0.44538904  0.30191815  0.65091235     0.35400
C185        C  0.36929614  0.29741448  0.73309644     0.38800
C186        C  0.47582622  0.39062199  0.66772540    -0.04700
C187        C  0.49158702  0.42194732  0.65406900     0.02400
C188        C  0.47090400  0.42731455  0.63718431    -0.04300
C189        C  0.43405318  0.40090690  0.63456738    -0.00600
C190        C  0.41914942  0.36858549  0.64711692    -0.03100
C191        C  0.49610074  0.38677852  0.68644987     0.36100
C192        C  0.41008950  0.40874628  0.62155462     0.39700
C193        C  0.02908122  0.44832415  0.65775658     0.38900
C194        C  0.38189222  0.34098813  0.64349988     0.35800
C195        C  0.40177830  0.35970367  0.70532856     0.36500
C196        C  0.41270435  0.23833852  0.67837932     0.39700
N197        N  0.05906313  0.46853624  0.66151477    -0.38300
N198        N  0.01203082  0.38387619  0.70160516    -0.39900
N199        N  0.38999332  0.41489303  0.61229136    -0.37700
N200        N  0.35222103  0.31886173  0.64064288    -0.40100
N201        N  0.46066766  0.30328237  0.63412588    -0.39800
N202        N  0.41440213  0.21367325  0.67254042    -0.37500
N203        N  0.35397678  0.29723534  0.74959670    -0.38500
N204        N  0.39972334  0.38431555  0.71078972    -0.40200
C205        C  0.12014783  0.08318354  0.66035807    -0.05100
C206        C  0.14609624  0.07332763  0.65583965     0.09000
C207        C  0.13891388  0.04672585  0.63923106    -0.02500
C208        C  0.10527724  0.02897097  0.62781592    -0.00800
C209        C  0.07837437  0.03775089  0.63297731    -0.04400
C210        C  0.08642984  0.06547992  0.64908123     0.02600
C211        C  0.17910127  0.08797335  0.67064626     0.09500
C212        C  0.16607879  0.03723100  0.63429436     0.35400
C213        C  0.06075780  0.07679122  0.65406301     0.38800
C214        C  0.17824066  0.06925012  0.69075998    -0.04700
C215        C  0.20813545  0.08334262  0.70572633     0.02400
C216        C  0.23943106  0.11671907  0.70077295    -0.04300
C217        C  0.24044931  0.13512507  0.68028483    -0.00600
C218        C  0.21031668  0.12074483  0.66529557    -0.03100
C219        C  0.14596872  0.03568827  0.69638037     0.36100
C220        C  0.27268619  0.16843034  0.67431944     0.39700
C221        C  0.20564515  0.06379604  0.72673008     0.38900
C222        C  0.21119356  0.13972042  0.64443775     0.35800
C223        C  0.12820913  0.11152156  0.67689850     0.36500
C224        C  0.09780561  0.00018497  0.61181003     0.39700
N225        N  0.20360900  0.04809885  0.74340595    -0.38300
N226        N  0.12025810  0.50899306  0.70092511    -0.39900
N227        N  0.29847677  0.19498084  0.66962266    -0.37700
N228        N  0.21185451  0.15485797  0.62778660    -0.40100
N229        N  0.18790370  0.02984919  0.63040841    -0.39800
N230        N  0.09191786  0.97722200  0.59907087    -0.37500
N231        N  0.04162037  0.08719631  0.65893002    -0.38500
N232        N  0.13476588  0.13423750  0.69000185    -0.40200
C233        C  0.45923811  0.08408894  0.64531589    -0.05100
C234        C  0.43774786  0.06626066  0.66463165     0.09000
C235        C  0.43184019  0.03225493  0.67070898    -0.02500
C236        C  0.44673646  0.01567031  0.65727502    -0.00800
C237        C  0.46787723  0.03306816  0.63746789    -0.04400
C238        C  0.47413226  0.06767572  0.63173553     0.02600
C239        C  0.42149601  0.08348566  0.67880284     0.09500
C240        C  0.41041262  0.01439782  0.69101858     0.35400
C241        C  0.99790143  0.08782243  0.61283067     0.38800
C242        C  0.38905745  0.08125989  0.67172205    -0.04700
C243        C  0.37303555  0.09648577  0.68541159     0.02400
C244        C  0.38978567  0.11477265  0.70616596    -0.04300
C245        C  0.42287204  0.11744456  0.71296517    -0.00600
C246        C  0.43830072  0.10152242  0.69944485    -0.03100
C247        C  0.37210142  0.06299618  0.65030927     0.36100
C248        C  0.44068594  0.13526679  0.73436118     0.39700
C249        C  0.33958414  0.09371523  0.67783708     0.38900
C250        C  0.47127563  0.10308049  0.70695964     0.35800
C251        C  0.46679531  0.11991024  0.63982753     0.36500
C252        C  0.43935890  0.48046547  0.66409670     0.39700
N253        N  0.31280141  0.09138272  0.67187236    -0.38300
N254        N  0.35880533  0.04849137  0.63315887    -0.39900
N255        N  0.45505985  0.14947762  0.75136563    -0.37700
N256        N  0.49740271  0.10405315  0.71299846    -0.40100
N257        N  0.39348153  0.50031994  0.70728034    -0.39800
N258        N  0.43276963  0.45260027  0.67067446    -0.37500
N259        N  0.01684032  0.10435425  0.59786178    -0.38500
N260        N  0.47290567  0.14853300  0.63555561    -0.40200
C261        C  0.02787084  0.02903121  0.52403792    -0.05100
C262        C  0.50068923  0.00051365  0.51130796     0.09000
C263        C  0.47123229  0.47271667  0.52308131    -0.02500
C264        C  0.47051775  0.47176712  0.54755684    -0.00800
C265        C  0.99961513  0.99883765  0.56074585    -0.04400
C266        C  0.02572113  0.02966544  0.54834194     0.02600
C267        C  0.50138884  0.00156579  0.48537302     0.09500
C268        C  0.44098781  0.44552930  0.50984973     0.35400
C269        C  0.04857746  0.06357246  0.55987286     0.38800
C270        C  0.00596983  0.47651454  0.47266040    -0.04700
C271        C  0.00419963  0.47614099  0.44829732     0.02400
C272        C  0.50419237  0.00478607  0.43594754    -0.04300
C273        C  0.49711179  0.02847828  0.44913919    -0.00600
C274        C  0.49527336  0.02638170  0.47355023    -0.03100
C275        C  0.01173961  0.45044960  0.48474759     0.36100
C276        C  0.48881804  0.05355213  0.43829287     0.39700
C277        C  0.99850218  0.44400894  0.43659046     0.38900
C278        C  0.48569875  0.04901243  0.48667588     0.35800
C279        C  0.05802516  0.05817190  0.51199210     0.36500
C280        C  0.43796689  0.44434211  0.55840693     0.39700
N281        N  0.99372652  0.41814588  0.42749765    -0.38300
N282        N  0.01640876  0.42973619  0.49439005    -0.39900
N283        N  0.48232110  0.07430671  0.43062659    -0.37700
N284        N  0.47790836  0.06682871  0.49719925    -0.40100
N285        N  0.41692399  0.42394698  0.49927530    -0.39800
N286        N  0.41109431  0.42168874  0.56575713    -0.37500
N287        N  0.06717269  0.09084381  0.56870235    -0.38500
N288        N  0.08203254  0.08129256  0.50232743    -0.40200
C289        C  0.48402122  0.46220747  0.02746709    -0.05100
C290        C  0.99414613  0.49300558  0.01413573     0.09000
C291        C  0.00073717  0.02470584  0.02513281    -0.02500
C292        C  0.99753323  0.02572648  0.04934093    -0.00800
C293        C  0.99403226  0.49703782  0.06333845    -0.04400
C294        C  0.48415229  0.46410196  0.05186841     0.02600
C295        C  0.99427218  0.49126071  0.98828439     0.09500
C296        C  0.00980556  0.05614904  0.01132946     0.35400
C297        C  0.47208557  0.43134588  0.06488063     0.38800
C298        C  0.46554265  0.48944898  0.97560710    -0.04700
C299        C  0.46636748  0.48995942  0.95119899     0.02400
C300        C  0.99687962  0.49356476  0.93895496    -0.04300
C301        C  0.02254830  0.98923751  0.95213514    -0.00600
C302        C  0.02234061  0.99031845  0.97655341    -0.03100
C303        C  0.43471763  0.48659383  0.98788036     0.36100
C304        C  0.04706928  0.97995379  0.94123592     0.39700
C305        C  0.43428331  0.48442103  0.93936753     0.38900
C306        C  0.05104457  0.99029451  0.98974590     0.35800
C307        C  0.47251008  0.42830081  0.01594746     0.36500
C308        C  0.99152204  0.05334224  0.05863726     0.39700
N309        N  0.40792467  0.48011124  0.93107068    -0.38300
N310        N  0.41023777  0.48433878  0.99770540    -0.39900
N311        N  0.06679837  0.97246555  0.93285615    -0.37700
N312        N  0.07391095  0.99036341  0.00033557    -0.40100
N313        N  0.01714256  0.08114005  0.00023622    -0.39800
N314        N  0.98635909  0.07537632  0.06567889    -0.37500
N315        N  0.46238313  0.40503033  0.07503481    -0.38500
N316        N  0.46310207  0.40127238  0.00671127    -0.40200
C317        C  0.10614530  0.40314812  0.33118776    -0.05100
C318        C  0.08180972  0.41320423  0.32254791     0.09000
C319        C  0.07098980  0.40658907  0.29911346    -0.02500
C320        C  0.08450095  0.39016120  0.28441319    -0.00800
C321        C  0.10963245  0.38116766  0.29288031    -0.04400
C322        C  0.12062258  0.38785482  0.31623606     0.02600
C323        C  0.06798091  0.43149861  0.33783834     0.09500
C324        C  0.04665945  0.41759637  0.29000347     0.35400
C325        C  0.14736178  0.37964395  0.32471114     0.38800
C326        C  0.09055440  0.46771963  0.34414703    -0.04700
C327        C  0.07655064  0.48563470  0.35699256     0.02400
C328        C  0.03947318  0.46809895  0.36224363    -0.04300
C329        C  0.01789863  0.43104698  0.35801333    -0.00600
C330        C  0.03193475  0.41290407  0.34551795    -0.03100
C331        C  0.12800302  0.48667120  0.33708774     0.36100
C332        C  0.48186523  0.41118922  0.36758962     0.39700
C333        C  0.10033296  0.02186893  0.36511114     0.38900
C334        C  0.00932636  0.37506312  0.34056798     0.35800
C335        C  0.11636334  0.40870744  0.35541646     0.36500
C336        C  0.07347565  0.38353467  0.26033756     0.39700
N337        N  0.11925047  0.05074878  0.37163035    -0.38300
N338        N  0.15789636  0.00167698  0.33147465    -0.39900
N339        N  0.45320007  0.39530625  0.37533056    -0.37700
N340        N  0.49123327  0.34488691  0.33658350    -0.40100
N341        N  0.02727651  0.42645694  0.28281775    -0.39800
N342        N  0.06475336  0.37815996  0.24112395    -0.37500
N343        N  0.16891928  0.37336296  0.33139783    -0.38500
N344        N  0.12450275  0.41315420  0.37475519    -0.40200
C345        C  0.36234437  0.44527838  0.36526953    -0.05100
C346        C  0.35641475  0.42772241  0.34391555     0.09000
C347        C  0.38506353  0.42702989  0.33269786    -0.02500
C348        C  0.41954491  0.44310987  0.34303736    -0.00800
C349        C  0.42620882  0.46153049  0.36456299    -0.04400
C350        C  0.39715592  0.46354489  0.37499658     0.02600
C351        C  0.32054483  0.41214858  0.33225332     0.09500
C352        C  0.37895593  0.40997022  0.31016338     0.35400
C353        C  0.40266393  0.48600791  0.39502716     0.38800
C354        C  0.31087875  0.43488958  0.32095410    -0.04700
C355        C  0.27920284  0.42038400  0.30753345     0.02400
C356        C  0.25728511  0.38273560  0.30484154    -0.04300
C357        C  0.26605605  0.36006839  0.31743662    -0.00600
C358        C  0.29740276  0.37481513  0.33123286    -0.03100
C359        C  0.33474684  0.47338087  0.32211139     0.36100
C360        C  0.24340688  0.32148817  0.31594587     0.39700
C361        C  0.27152820  0.44465664  0.29479902     0.38900
C362        C  0.30652358  0.35161173  0.34395388     0.35800
C363        C  0.33232963  0.44462693  0.37720203     0.36500
C364        C  0.44739575  0.44025859  0.33088071     0.39700
N365        N  0.26580813  0.46421474  0.28456814    -0.38300
N366        N  0.35386451  0.00403425  0.32305554    -0.39900
N367        N  0.22569793  0.29067657  0.31472635    -0.37700
N368        N  0.31390565  0.33320024  0.35412109    -0.40100
N369        N  0.37396037  0.39638908  0.29221003    -0.39800
N370        N  0.46879628  0.43771112  0.32027343    -0.37500
N371        N  0.40638720  0.50352025  0.41110153    -0.38500
N372        N  0.30833137  0.44386558  0.38674947    -0.40200
C373        C  0.02811078  0.12673368  0.34889375    -0.05100
C374        C  0.05651683  0.13661990  0.33312152     0.09000
C375        C  0.06860361  0.11255577  0.32827811    -0.02500
C376        C  0.05288104  0.07907480  0.33946475    -0.00800
C377        C  0.02715431  0.07066376  0.35724532    -0.04400
C378        C  0.01328859  0.09379570  0.36075418     0.02600
C379        C  0.07157006  0.17085377  0.31982331     0.09500
C380        C  0.09720934  0.12228794  0.31152310     0.35400
C381        C  0.48103274  0.08198605  0.37438700     0.38800
C382        C  0.09817325  0.20339193  0.32968129    -0.04700
C383        C  0.11435422  0.23502604  0.31634514     0.02400
C384        C  0.10449666  0.23417148  0.29288440    -0.04300
C385        C  0.07669996  0.20163621  0.28336465    -0.00600
C386        C  0.06025222  0.17026448  0.29685094    -0.03100
C387        C  0.10926239  0.20410816  0.35346814     0.36100
C388        C  0.06568815  0.19966562  0.25941000     0.39700
C389        C  0.14032660  0.26862526  0.32702264     0.38900
C390        C  0.03206400  0.13696394  0.28694970     0.35800
C391        C  0.01363921  0.15019319  0.35247781     0.36500
C392        C  0.06102880  0.05268348  0.33072904     0.39700
N393        N  0.16081092  0.29546867  0.33562373    -0.38300
N394        N  0.11805664  0.20462963  0.37246300    -0.39900
N395        N  0.05644939  0.19766629  0.24038424    -0.37700
N396        N  0.00964500  0.11035851  0.27910766    -0.40100
N397        N  0.12007679  0.13018938  0.29821003    -0.39800
N398        N  0.06703716  0.03216420  0.32209341    -0.37500
N399        N  0.45457103  0.07278203  0.38445337    -0.38500
N400        N  0.00212979  0.16895350  0.35527383    -0.40200
C401        C  0.05026635  0.43475125  0.16728990    -0.05100
C402        C  0.08490207  0.44462649  0.15918913     0.09000
C403        C  0.09944169  0.46836628  0.14042039    -0.02500
C404        C  0.07900083  0.48133168  0.12930074    -0.00800
C405        C  0.04349888  0.47067578  0.13689580    -0.04400
C406        C  0.03018677  0.44858346  0.15684289     0.02600
C407        C  0.10653775  0.43140368  0.17162055     0.09500
C408        C  0.13574882  0.47979187  0.13274454     0.35400
C409        C  0.49681406  0.44088920  0.16781683     0.38800
C410        C  0.10580967  0.39999615  0.16418023    -0.04700
C411        C  0.12091852  0.38418076  0.17817882     0.02400
C412        C  0.13693693  0.39979986  0.19960272    -0.04300
C413        C  0.13988793  0.43259187  0.20624395    -0.00600
C414        C  0.12478349  0.44834844  0.19225824    -0.03100
C415        C  0.08856984  0.38346828  0.14244779     0.36100
C416        C  0.15632339  0.44896484  0.22822155     0.39700
C417        C  0.11993590  0.35176772  0.17065366     0.38900
C418        C  0.12672176  0.48134483  0.19950613     0.35800
C419        C  0.03515383  0.41005285  0.18656981     0.36500
C420        C  0.09574233  0.50730497  0.11087858     0.39700
N421        N  0.11947721  0.32605812  0.16464057    -0.38300
N422        N  0.07491326  0.37039472  0.12504395    -0.39900
N423        N  0.16929015  0.46203342  0.24577479    -0.37700
N424        N  0.12822071  0.00766685  0.20523230    -0.40100
N425        N  0.16472977  0.48898231  0.12661806    -0.39800
N426        N  0.10936729  0.52784552  0.09611451    -0.37500
N427        N  0.47123264  0.43508099  0.17793756    -0.38500
N428        N  0.02286426  0.39020215  0.20181881    -0.40200
C429        C  0.33653551  0.41839018  0.20424644    -0.05100
C430        C  0.33202144  0.40942170  0.18054302     0.09000
C431        C  0.29742925  0.38491599  0.17189788    -0.02500
C432        C  0.26731356  0.37023614  0.18678777    -0.00800
C433        C  0.27162271  0.38032120  0.21035759    -0.04400
C434        C  0.30649285  0.40392575  0.21909755     0.02600
C435        C  0.36390052  0.42637576  0.16475964     0.09500
C436        C  0.29287600  0.37514308  0.14761466     0.35400
C437        C  0.31199702  0.41223266  0.24356929     0.38800
C438        C  0.38053472  0.40711918  0.15742842    -0.04700
C439        C  0.41183381  0.42398002  0.14368328     0.02400
C440        C  0.42788323  0.46071186  0.13847076    -0.04300
C441        C  0.40962523  0.47909533  0.14411647    -0.00600
C442        C  0.37796884  0.46212631  0.15751801    -0.03100
C443        C  0.36570059  0.37012321  0.16429891     0.36100
C444        C  0.42295188  0.01515376  0.13562856     0.39700
C445        C  0.42696894  0.40331304  0.13438572     0.38900
C446        C  0.35982051  0.48139238  0.16393168     0.35800
C447        C  0.37231980  0.44232786  0.21337109     0.36500
C448        C  0.23177114  0.34540757  0.17774236     0.39700
N449        N  0.43901445  0.38677536  0.12701502    -0.38300
N450        N  0.35383365  0.34059179  0.16978458    -0.39900
N451        N  0.43362700  0.04388227  0.12879741    -0.37700
N452        N  0.34529111  0.49669202  0.16911197    -0.40100
N453        N  0.28939861  0.36728756  0.12824130    -0.39800
N454        N  0.20336334  0.32548715  0.17065828    -0.37500
N455        N  0.31741063  0.41907163  0.26303313    -0.38500
N456        N  0.40087043  0.46139433  0.22059819    -0.40200
C457        C  0.08708300  0.13429308  0.14243626    -0.05100
C458        C  0.07227880  0.13853611  0.16305910     0.09000
C459        C  0.04145956  0.10897843  0.17248667    -0.02500
C460        C  0.02393779  0.07590500  0.16059447    -0.00800
C461        C  0.03779062  0.07159579  0.13920491    -0.04400
C462        C  0.07080764  0.10092145  0.13099616     0.02600
C463        C  0.08965251  0.17405037  0.17520529     0.09500
C464        C  0.02801692  0.11260022  0.19478064     0.35400
C465        C  0.08947569  0.09709208  0.11129728     0.38800
C466        C  0.07270626  0.19467321  0.17548142    -0.04700
C467        C  0.08755531  0.22673166  0.18844696     0.02400
C468        C  0.12094812  0.23971295  0.20021038    -0.04300
C469        C  0.13953505  0.22048684  0.19769262    -0.00600
C470        C  0.12302567  0.18702605  0.18643504    -0.03100
C471        C  0.03951071  0.18243645  0.16261658     0.36100
C472        C  0.17611007  0.23509622  0.20614854     0.39700
C473        C  0.06724352  0.24502570  0.19026735     0.38900
C474        C  0.13997263  0.16533603  0.18697458     0.35800
C475        C  0.11943860  0.16450647  0.13300873     0.36500
C476        C  0.49188264  0.04694209  0.17104925     0.39700
N477        N  0.05071829  0.25929516  0.19173003    -0.38300
N478        N  0.01309702  0.17259894  0.15228437    -0.39900
N479        N  0.20536025  0.24674019  0.21269905    -0.37700
N480        N  0.15333438  0.14792364  0.18747293    -0.40100
N481        N  0.01736765  0.11541886  0.21257331    -0.39800
N482        N  0.46700658  0.02453087  0.18050950    -0.37500
N483        N  0.10461756  0.09486558  0.09543193    -0.38500
N484        N  0.14537028  0.18858125  0.12566022    -0.40200
O485        O  0.11010792  0.83515022  0.27086791    -0.81500
C486        C  0.23983681  0.86656038  0.22581195     0.97900
O487        O  0.23441789  0.88853489  0.23702531    -0.70600
O488        O  0.17816464  0.89293529  0.22347186    -0.74200
Al489      Al  0.19279245  0.88418323  0.25258250     1.49000
C490        C  0.14623836  0.87991639  0.21644928     0.93200
O491        O  0.12277049  0.79173275  0.21718485    -0.80400
O492        O  0.15824761  0.78489476  0.27889371    -0.73900
Al493      Al  0.11935159  0.81487429  0.24447750     1.90100
O494        O  0.15668286  0.77326457  0.23248653    -0.73000
O495        O  0.22406530  0.84138407  0.27475642    -0.72900
O496        O  0.21891496  0.83324637  0.22785815    -0.78500
O497        O  0.21070175  0.88255121  0.28224021    -0.76700
O498        O  0.16655328  0.83668461  0.25005364    -1.12900
O499        O  0.15705833  0.88945497  0.26855735    -0.72100
C500        C  0.12656792  0.86763372  0.27675219     0.98700
C501        C  0.13456982  0.77033505  0.21709668     0.95100
Al502      Al  0.18764847  0.81051643  0.25324351     1.55600
O503        O  0.12123072  0.85113961  0.22476309    -0.76700
C504        C  0.22856332  0.86764013  0.28674732     0.99200
C505        C  0.12427553  0.76638141  0.27791930     0.94100
O506        O  0.10702516  0.77372180  0.26332250    -0.82000
C507        C  0.99764791  0.99950111  0.09010954     0.86800
C508        C  0.01912725  0.98282323  0.10021551    -0.53400
C509        C  0.02089120  0.98267111  0.12391667     0.09800
C510        C  0.00035697  0.99924146  0.13539424     0.20700
C511        C  0.46083424  0.97938244  0.10156200    -0.54100
C512        C  0.46183891  0.97895813  0.12498525     0.09900
C513        C  0.01633576  0.53700936  0.10151247    -0.53700
C514        C  0.01805236  0.53731964  0.12521782     0.10400
H515        H  0.03244149  0.97254247  0.08935922     0.14900
H516        H  0.00148170  0.49890605  0.15441908     0.00700
H517        H  0.43573866  0.96643536  0.09186474     0.15300
H518        H  0.02911620  0.56164785  0.09187948     0.15000
C519        C  0.50462453  0.50521011  0.40904468     0.86800
C520        C  0.01835377  0.54135733  0.39630264    -0.53400
C521        C  0.01536058  0.53867576  0.37263912     0.09800
C522        C  0.49952061  0.50011847  0.36383072     0.20700
C523        C  0.46647587  0.98047986  0.39980672    -0.54100
C524        C  0.46280276  0.97892438  0.37624756     0.09900
C525        C  0.02766463  0.99143767  0.39796448    -0.53700
C526        C  0.02394063  0.98716636  0.37469172     0.10400
H527        H  0.03153237  0.56722778  0.40480898     0.14900
H528        H  0.49803654  0.49875059  0.34477736     0.00700
H529        H  0.44398100  0.96555284  0.41144149     0.15300
H530        H  0.04541504  0.98510646  0.40756332     0.15000
O531        O  0.38721808  0.66488449  0.77865207    -0.81500
C532        C  0.26987328  0.63237581  0.71765493     0.97900
O533        O  0.27717758  0.61168309  0.72849144    -0.70600
O534        O  0.33883541  0.61361222  0.72406812    -0.74200
Al535      Al  0.31262602  0.61660942  0.74978355     1.49000
C536        C  0.37253260  0.62989981  0.72132071     0.93200
O537        O  0.39069064  0.71771382  0.72500708    -0.80400
O538        O  0.33416488  0.71495822  0.77718014    -0.73900
Al539      Al  0.38510795  0.68923886  0.75173190     1.90100
O540        O  0.34551790  0.72629322  0.73091476    -0.73000
O541        O  0.27321611  0.65576105  0.76825462    -0.72900
O542        O  0.28664466  0.66543937  0.72202227    -0.78500
O543        O  0.28256757  0.61167768  0.77558337    -0.76700
O544        O  0.33666863  0.66469249  0.75036765    -1.12900
O545        O  0.34287153  0.61106448  0.77079051    -0.72100
C546        C  0.37083332  0.63156857  0.78203609     0.98700
C547        C  0.37487932  0.73505909  0.72112230     0.95100
Al548      Al  0.31224304  0.68831653  0.74964463     1.55600
O549        O  0.39229460  0.65838062  0.73220839    -0.76700
C550        C  0.26489392  0.62729779  0.77883460     0.99200
C551        C  0.36743784  0.73274100  0.78155224     0.94100
O552        O  0.38890175  0.72551115  0.77156372    -0.82000
C553        C  0.99930441  0.99698996  0.91214121     0.86800
C554        C  0.47804342  0.96017621  0.90071510    -0.53400
C555        C  0.47883846  0.96029526  0.87708627     0.09800
C556        C  0.00058892  0.99828740  0.86670842     0.20700
C557        C  0.03743556  0.51451604  0.90145177    -0.54100
C558        C  0.03832322  0.51485745  0.87779096     0.09100
C559        C  0.48423849  0.51921129  0.90122858    -0.53700
C560        C  0.48396269  0.51916736  0.87760156     0.10400
H561        H  0.46343753  0.93573015  0.91072135     0.14900
H562        H  0.00127637  0.99909820  0.84752078     0.00700
H563        H  0.06200955  0.52743142  0.91153713     0.15300
H564        H  0.47482540  0.53416833  0.91111283     0.15000
C565        C  0.00142291  0.99720287  0.58761076     0.86800
C566        C  0.48199499  0.51446096  0.59938682    -0.53400
C567        C  0.48413010  0.51586018  0.62303106     0.09800
C568        C  0.00560860  0.99911647  0.63296788     0.20700
C569        C  0.04007443  0.51688450  0.59739654    -0.54100
C570        C  0.04259030  0.51887828  0.62087352     0.09900
C571        C  0.48545587  0.96000241  0.59910765    -0.53700
C572        C  0.48696639  0.96078579  0.62283749     0.10400
H573        H  0.46745126  0.52457545  0.58962607     0.14900
H574        H  0.00769192  0.00018884  0.65212382     0.00700
H575        H  0.06395365  0.52759019  0.58667495     0.15300
H576        H  0.47479647  0.93511315  0.58959650     0.15000
C577        C  0.41978847  0.88773071  0.83297046    -0.05100
C578        C  0.42535226  0.85962520  0.83960147     0.09000
C579        C  0.44914555  0.86473392  0.85785974    -0.02500
C580        C  0.46709580  0.89774450  0.86965587    -0.00800
C581        C  0.46110590  0.92606497  0.86343951    -0.04400
C582        C  0.43798289  0.92100298  0.84451492     0.02600
C583        C  0.41018810  0.82647516  0.82518161     0.09500
C584        C  0.45619948  0.83631777  0.86386866     0.35400
C585        C  0.43344150  0.94986875  0.83599170     0.38800
C586        C  0.42837621  0.82683317  0.80487041    -0.04700
C587        C  0.41462717  0.79613415  0.79086220     0.02400
C588        C  0.38249287  0.76437745  0.79721537    -0.04300
C589        C  0.36479513  0.76385029  0.81795111    -0.00600
C590        C  0.37831431  0.79506025  0.83168309    -0.03100
C591        C  0.46117966  0.85925101  0.79822623     0.36100
C592        C  0.33370121  0.73086095  0.82570086     0.39700
C593        C  0.43344114  0.79801069  0.76957669     0.38900
C594        C  0.35920345  0.79517176  0.85228828     0.35800
C595        C  0.39587298  0.88249300  0.81372818     0.36500
C596        C  0.49408949  0.90334655  0.88683853     0.39700
N597        N  0.44874832  0.79977463  0.75271661    -0.38300
N598        N  0.48721503  0.88517986  0.79296651    -0.39900
N599        N  0.30913972  0.70438122  0.83194335    -0.37700
N600        N  0.34384661  0.79542604  0.86864658    -0.40100
N601        N  0.46184329  0.81364812  0.86857453    -0.39800
N602        N  0.01576292  0.90770681  0.90038366    -0.37500
N603        N  0.42960748  0.97220735  0.82802621    -0.38500
N604        N  0.37685031  0.87819532  0.79834775    -0.40200
C605        C  0.11130965  0.52851476  0.83408732    -0.05100
C606        C  0.13832953  0.56412912  0.83861147     0.09000
C607        C  0.13287876  0.58354578  0.85613312    -0.02500
C608        C  0.10060821  0.56746949  0.86909579    -0.00800
C609        C  0.07298929  0.53179716  0.86433949    -0.04400
C610        C  0.07876088  0.51247663  0.84672152     0.02600
C611        C  0.17158413  0.58172831  0.82385417     0.09500
C612        C  0.16020425  0.62052626  0.86032043     0.35400
C613        C  0.05180416  0.97578064  0.84157472     0.38800
C614        C  0.17048844  0.59597898  0.80215256    -0.04700
C615        C  0.20093543  0.61098341  0.78757549     0.02400
C616        C  0.23299857  0.61181516  0.79456137    -0.04300
C617        C  0.23428694  0.59830026  0.81659439    -0.00600
C618        C  0.20373706  0.58347553  0.83120228    -0.03100
C619        C  0.13782286  0.59524604  0.79488833     0.36100
C620        C  0.26745672  0.60086299  0.82460869     0.39700
C621        C  0.19867948  0.62482247  0.76514225     0.38900
C622        C  0.20540893  0.57033337  0.85394980     0.35800
C623        C  0.11707286  0.50838007  0.81621277     0.36500
C624        C  0.09508250  0.58865661  0.88629917     0.39700
N625        N  0.19676822  0.63599138  0.74734234    -0.38300
N626        N  0.11174379  0.59466231  0.78919940    -0.39900
N627        N  0.29405324  0.60310251  0.83091207    -0.37700
N628        N  0.20676950  0.56006917  0.87218828    -0.40100
N629        N  0.18203025  0.65005929  0.86355315    -0.39800
N630        N  0.09054051  0.60561174  0.89989518    -0.37500
N631        N  0.03113073  0.94651310  0.83670239    -0.38500
N632        N  0.12170606  0.99235378  0.80196293    -0.40200
C633        C  0.41376108  0.61523558  0.83493237    -0.05100
C634        C  0.41573213  0.58522946  0.82753435     0.09000
C635        C  0.40232377  0.57008978  0.80562097    -0.02500
C636        C  0.38710235  0.58487535  0.79103057    -0.00800
C637        C  0.38550551  0.61539850  0.79817335    -0.04400
C638        C  0.39863702  0.63032138  0.82028843     0.02600
C639        C  0.43360841  0.57018427  0.84204825     0.09500
C640        C  0.40525173  0.53977501  0.79780493     0.35400
C641        C  0.39575407  0.66055627  0.82819580     0.38800
C642        C  0.41269544  0.53915469  0.85529864    -0.04700
C643        C  0.42904921  0.52182187  0.86614061     0.02400
C644        C  0.46667443  0.53603148  0.86436517    -0.04300
C645        C  0.48736464  0.56670050  0.85064650    -0.00600
C646        C  0.47090391  0.58390673  0.83974664    -0.03100
C647        C  0.37411349  0.52443510  0.85708260     0.36100
C648        C  0.02523919  0.58006968  0.84673948     0.39700
C649        C  0.40650937  0.98708405  0.87666339     0.38900
C650        C  0.49211293  0.61534605  0.82556764     0.35800
C651        C  0.42776011  0.63076707  0.85747688     0.36500
C652        C  0.37432306  0.56907999  0.76831300     0.39700
N653        N  0.38809570  0.95871208  0.88406502    -0.38300
N654        N  0.34334168  0.01270262  0.85849759    -0.39900
N655        N  0.05536366  0.59157428  0.84253148    -0.37700
N656        N  0.00882170  0.64043828  0.81424807    -0.40100
N657        N  0.40774909  0.51573461  0.79156434    -0.39800
N658        N  0.36410314  0.55608827  0.75031752    -0.37500
N659        N  0.39328836  0.68462683  0.83442144    -0.38500
N660        N  0.43905768  0.64320683  0.87545308    -0.40200
C661        C  0.40439376  0.82881368  0.69854036    -0.05100
C662        C  0.42331198  0.83026058  0.67833098     0.09000
C663        C  0.42625426  0.80041574  0.67189789    -0.02500
C664        C  0.41044405  0.76917324  0.68568173    -0.00800
C665        C  0.39136591  0.76752956  0.70602358    -0.04400
C666        C  0.38830398  0.79768000  0.71225813     0.02600
C667        C  0.43997109  0.86341155  0.66378058     0.09500
C668        C  0.44538956  0.80191827  0.65091246     0.35400
C669        C  0.36929556  0.79741441  0.73309614     0.38800
C670        C  0.47582627  0.89062187  0.66772524    -0.04700
C671        C  0.49158706  0.92194724  0.65406889     0.02400
C672        C  0.47090405  0.92731454  0.63718425    -0.04300
C673        C  0.43405318  0.90090698  0.63456738    -0.00600
C674        C  0.41914937  0.86858554  0.64711687    -0.03100
C675        C  0.49610080  0.88677834  0.68644969     0.36100
C676        C  0.41008952  0.90874649  0.62155469     0.39700
C677        C  0.02908125  0.94832440  0.65775673     0.38900
C678        C  0.38189213  0.84098819  0.64349978     0.35800
C679        C  0.40177781  0.85970352  0.70532818     0.36500
C680        C  0.41270481  0.73833876  0.67837947     0.39700
N681        N  0.05906317  0.96853655  0.66151495    -0.38300
N682        N  0.01203050  0.88387654  0.70160552    -0.39900
N683        N  0.38999343  0.91489333  0.61229142    -0.37700
N684        N  0.35222093  0.81886191  0.64064271    -0.40100
N685        N  0.46066844  0.80328244  0.63412614    -0.39800
N686        N  0.41440272  0.71367356  0.67254061    -0.37500
N687        N  0.35397598  0.79723518  0.74959629    -0.38500
N688        N  0.39972271  0.88431536  0.71078922    -0.40200
C689        C  0.12014777  0.58318355  0.66035792    -0.05100
C690        C  0.14609615  0.57332757  0.65583953     0.09000
C691        C  0.13891374  0.54672570  0.63923097    -0.02500
C692        C  0.10527710  0.52897082  0.62781582    -0.00800
C693        C  0.07837426  0.53775075  0.63297721    -0.04400
C694        C  0.08642973  0.56547978  0.64908114     0.02600
C695        C  0.17910118  0.58797329  0.67064617     0.09500
C696        C  0.16607861  0.53723083  0.63429429     0.35400
C697        C  0.06075772  0.57679110  0.65406289     0.38800
C698        C  0.17824066  0.56924995  0.69075980    -0.04700
C699        C  0.20813548  0.58334245  0.70572617     0.02400
C700        C  0.23943101  0.61671904  0.70077287    -0.04300
C701        C  0.24044914  0.63512516  0.68028483    -0.00600
C702        C  0.21031650  0.62074489  0.66529557    -0.03100
C703        C  0.14596873  0.53568801  0.69638017     0.36100
C704        C  0.27268586  0.66843057  0.67431952     0.39700
C705        C  0.20564522  0.56379585  0.72672989     0.38900
C706        C  0.21119329  0.63972060  0.64443780     0.35800
C707        C  0.12820907  0.61152161  0.67689836     0.36500
C708        C  0.09780546  0.50018484  0.61180989     0.39700
N709        N  0.20360905  0.54809865  0.74340577    -0.38300
N710        N  0.12025803  0.00899335  0.70092531    -0.39900
N711        N  0.29847630  0.69498128  0.66962280    -0.37700
N712        N  0.21185414  0.65485828  0.62778675    -0.40100
N713        N  0.18790352  0.52984899  0.63040838    -0.39800
N714        N  0.09191767  0.47722190  0.59907068    -0.37500
N715        N  0.04162043  0.58719638  0.65892986    -0.38500
N716        N  0.13476580  0.63423747  0.69000177    -0.40200
C717        C  0.45923832  0.58408914  0.64531584    -0.05100
C718        C  0.43774790  0.56626079  0.66463153     0.09000
C719        C  0.43184016  0.53225502  0.67070887    -0.02500
C720        C  0.44673641  0.51567038  0.65727492    -0.00800
C721        C  0.46787730  0.53306827  0.63746784    -0.04400
C722        C  0.47413251  0.56767590  0.63173552     0.02600
C723        C  0.42149607  0.58348582  0.67880271     0.09500
C724        C  0.41041253  0.51439792  0.69101846     0.35400
C725        C  0.99790162  0.58782244  0.61283066     0.38800
C726        C  0.38905748  0.58126000  0.67172193    -0.04700
C727        C  0.37303559  0.59648586  0.68541148     0.02400
C728        C  0.38978567  0.61477271  0.70616587    -0.04300
C729        C  0.42287209  0.61744470  0.71296503    -0.00600
C730        C  0.43830083  0.60152267  0.69944468    -0.03100
C731        C  0.37210147  0.56299626  0.65030917     0.36100
C732        C  0.44068595  0.63526688  0.73436108     0.39700
C733        C  0.33958417  0.59371532  0.67783694     0.38900
C734        C  0.47127578  0.60308080  0.70695945     0.35800
C735        C  0.46679567  0.61991049  0.63982752     0.36500
C736        C  0.43935911  0.98046545  0.66409686     0.39700
N737        N  0.31280147  0.59138279  0.67187220    -0.38300
N738        N  0.35880542  0.54849137  0.63315877    -0.39900
N739        N  0.45505975  0.64947765  0.75136556    -0.37700
N740        N  0.49740285  0.60405349  0.71299830    -0.40100
N741        N  0.39348177  0.00031986  0.70728049    -0.39800
N742        N  0.43277003  0.95260033  0.67067464    -0.37500
N743        N  0.01684061  0.60435412  0.59786177    -0.38500
N744        N  0.47290620  0.64853333  0.63555561    -0.40200
C745        C  0.02787060  0.52903099  0.52403788    -0.05100
C746        C  0.50068948  0.50051363  0.51130796     0.09000
C747        C  0.47123204  0.97271664  0.52308130    -0.02500
C748        C  0.47051759  0.97176702  0.54755684    -0.00800
C749        C  0.99961489  0.49883751  0.56074583    -0.04400
C750        C  0.02572093  0.52966526  0.54834191     0.02600
C751        C  0.50138907  0.50156579  0.48537302     0.09500
C752        C  0.44098753  0.94552929  0.50984973     0.35400
C753        C  0.04857734  0.56357227  0.55987283     0.38800
C754        C  0.00597037  0.97651486  0.47266042    -0.04700
C755        C  0.00419997  0.97614122  0.44829735     0.02400
C756        C  0.50419265  0.50478617  0.43594754    -0.04300
C757        C  0.49711212  0.52847840  0.44913921    -0.00600
C758        C  0.49527370  0.52638178  0.47355025    -0.03100
C759        C  0.01174026  0.95044998  0.48474758     0.36100
C760        C  0.48881823  0.55355220  0.43829294     0.39700
C761        C  0.99850244  0.94400911  0.43659051     0.38900
C762        C  0.48569916  0.54901252  0.48667595     0.35800
C763        C  0.05802493  0.55817166  0.51199204     0.36500
C764        C  0.43796679  0.94434194  0.55840697     0.39700
N765        N  0.99372673  0.91814598  0.42749779    -0.38300
N766        N  0.01640936  0.92973652  0.49439005    -0.39900
N767        N  0.48232109  0.57430669  0.43062676    -0.37700
N768        N  0.47790879  0.56682875  0.49719938    -0.40100
N769        N  0.41692366  0.92394698  0.49927529    -0.39800
N770        N  0.41109431  0.92168852  0.56575727    -0.37500
N771        N  0.06717268  0.59084358  0.56870234    -0.38500
N772        N  0.08203227  0.58129227  0.50232731    -0.40200
C773        C  0.48402103  0.96220718  0.02746705    -0.05100
C774        C  0.99414635  0.99300570  0.01413570     0.09000
C775        C  0.00073694  0.52470568  0.02513285    -0.02500
C776        C  0.99753310  0.52572631  0.04934099    -0.00800
C777        C  0.99403235  0.99703800  0.06333842    -0.04400
C778        C  0.48415208  0.96410163  0.05186838     0.02600
C779        C  0.99427236  0.99126079  0.98828436     0.09500
C780        C  0.00980520  0.55614886  0.01132952     0.35400
C781        C  0.47208557  0.93134560  0.06488057     0.38800
C782        C  0.46554234  0.98944851  0.97560703    -0.04700
C783        C  0.46636722  0.98995899  0.95119892     0.02400
C784        C  0.99687970  0.99356484  0.93895494    -0.04300
C785        C  0.02254819  0.48923742  0.95213519    -0.00600
C786        C  0.02234049  0.49031841  0.97655345    -0.03100
C787        C  0.43471720  0.98659315  0.98788028     0.36100
C788        C  0.04706920  0.47995371  0.94123596     0.39700
C789        C  0.43428306  0.98442057  0.93936745     0.38900
C790        C  0.05104453  0.49029471  0.98974598     0.35800
C791        C  0.47251005  0.92830055  0.01594742     0.36500
C792        C  0.99152195  0.55334207  0.05863734     0.39700
N793        N  0.40792436  0.98011077  0.93107065    -0.38300
N794        N  0.41023734  0.98433803  0.99770535    -0.39900
N795        N  0.06679831  0.47246551  0.93285619    -0.37700
N796        N  0.07391099  0.49036386  0.00033572    -0.40100
N797        N  0.01714214  0.58113991  0.00023634    -0.39800
N798        N  0.98635895  0.57537613  0.06567893    -0.37500
N799        N  0.46238335  0.90503000  0.07503470    -0.38500
N800        N  0.46310213  0.90127214  0.00671125    -0.40200
C801        C  0.10614542  0.90314823  0.33118771    -0.05100
C802        C  0.08180980  0.91320428  0.32254787     0.09000
C803        C  0.07098973  0.90658894  0.29911344    -0.02500
C804        C  0.08450077  0.89016098  0.28441317    -0.00800
C805        C  0.10963237  0.88116757  0.29288028    -0.04400
C806        C  0.12062266  0.88785490  0.31623599     0.02600
C807        C  0.06798107  0.93149874  0.33783829     0.09500
C808        C  0.04665919  0.91759604  0.29000351     0.35400
C809        C  0.14736205  0.87964424  0.32471101     0.38800
C810        C  0.09055458  0.96771977  0.34414694    -0.04700
C811        C  0.07655086  0.98563484  0.35699253     0.02400
C812        C  0.03947342  0.96809907  0.36224366    -0.04300
C813        C  0.01789889  0.93104709  0.35801342    -0.00600
C814        C  0.03193498  0.91290418  0.34551801    -0.03100
C815        C  0.12800318  0.98667133  0.33708759     0.36100
C816        C  0.48186494  0.91118899  0.36758962     0.39700
C817        C  0.10033270  0.52186878  0.36511120     0.38900
C818        C  0.00932667  0.87506319  0.34056818     0.35800
C819        C  0.11636363  0.90870771  0.35541635     0.36500
C820        C  0.07347530  0.88353427  0.26033757     0.39700
N821        N  0.11925010  0.55074860  0.37163051    -0.38300
N822        N  0.15789621  0.50167682  0.33147482    -0.39900
N823        N  0.45319977  0.89530610  0.37533053    -0.37700
N824        N  0.49123308  0.84488671  0.33658350    -0.40100
N825        N  0.02727609  0.92645647  0.28281788    -0.39800
N826        N  0.06475284  0.87815948  0.24112399    -0.37500
N827        N  0.16891962  0.87336332  0.33139765    -0.38500
N828        N  0.12450330  0.91315457  0.37475506    -0.40200
C829        C  0.36234421  0.94527839  0.36526943    -0.05100
C830        C  0.35641458  0.92772241  0.34391547     0.09000
C831        C  0.38506332  0.92702976  0.33269782    -0.02500
C832        C  0.41954473  0.94310976  0.34303730    -0.00800
C833        C  0.42620864  0.96153043  0.36456292    -0.04400
C834        C  0.39715574  0.96354487  0.37499650     0.02600
C835        C  0.32054467  0.91214857  0.33225321     0.09500
C836        C  0.37895567  0.90997008  0.31016337     0.35400
C837        C  0.40266377  0.98600789  0.39502707     0.38800
C838        C  0.31087859  0.93488955  0.32095397    -0.04700
C839        C  0.27920258  0.92038391  0.30753340     0.02400
C840        C  0.25728484  0.88273549  0.30484151    -0.04300
C841        C  0.26605586  0.86006830  0.31743654    -0.00600
C842        C  0.29740258  0.87481511  0.33123277    -0.03100
C843        C  0.33474671  0.97338086  0.32211121     0.36100
C844        C  0.24340669  0.82148803  0.31594582     0.39700
C845        C  0.27152789  0.94465653  0.29479899     0.38900
C846        C  0.30652337  0.85161176  0.34395385     0.35800
C847        C  0.33232946  0.94462700  0.37720191     0.36500
C848        C  0.44739555  0.94025844  0.33088061     0.39700
N849        N  0.26580774  0.96421456  0.28456813    -0.38300
N850        N  0.35386464  0.50403425  0.32305572    -0.39900
N851        N  0.22569778  0.79067643  0.31472636    -0.37700
N852        N  0.31390554  0.83320036  0.35412108    -0.40100
N853        N  0.37396008  0.89638905  0.29220997    -0.39800
N854        N  0.46879602  0.93771093  0.32027329    -0.37500
N855        N  0.40638706  0.00352028  0.41110145    -0.38500
N856        N  0.30833117  0.94386565  0.38674927    -0.40200
C857        C  0.02811097  0.62673380  0.34889390    -0.05100
C858        C  0.05651700  0.63661997  0.33312164     0.09000
C859        C  0.06860374  0.61255581  0.32827824    -0.02500
C860        C  0.05288100  0.57907477  0.33946481    -0.00800
C861        C  0.02715422  0.57066372  0.35724534    -0.04400
C862        C  0.01328867  0.59379578  0.36075427     0.02600
C863        C  0.07157020  0.67085378  0.31982337     0.09500
C864        C  0.09720957  0.62228798  0.31152327     0.35400
C865        C  0.48103272  0.58198609  0.37438704     0.38800
C866        C  0.09817334  0.70339200  0.32968130    -0.04700
C867        C  0.11435419  0.73502609  0.31634514     0.02400
C868        C  0.10449668  0.73417143  0.29288440    -0.04300
C869        C  0.07670006  0.70163612  0.28336467    -0.00600
C870        C  0.06025232  0.67026440  0.29685099    -0.03100
C871        C  0.10926246  0.70410837  0.35346816     0.36100
C872        C  0.06568823  0.69966548  0.25941005     0.39700
C873        C  0.14032645  0.76862536  0.32702264     0.38900
C874        C  0.03206423  0.63696382  0.28694974     0.35800
C875        C  0.01363943  0.65019336  0.35247793     0.36500
C876        C  0.06102872  0.55268345  0.33072914     0.39700
N877        N  0.16081080  0.79546874  0.33562373    -0.38300
N878        N  0.11805673  0.70462999  0.37246302    -0.39900
N879        N  0.05644939  0.69766607  0.24038428    -0.37700
N880        N  0.00964543  0.61035828  0.27910765    -0.40100
N881        N  0.12007708  0.63018941  0.29821027    -0.39800
N882        N  0.06703711  0.53216416  0.32209355    -0.37500
N883        N  0.45457109  0.57278214  0.38445348    -0.38500
N884        N  0.00213011  0.66895376  0.35527385    -0.40200
C885        C  0.05026652  0.93475177  0.16729003    -0.05100
C886        C  0.08490214  0.94462679  0.15918920     0.09000
C887        C  0.09944172  0.96836642  0.14042037    -0.02500
C888        C  0.07900088  0.98133184  0.12930070    -0.00800
C889        C  0.04349894  0.97067601  0.13689576    -0.04400
C890        C  0.03018687  0.94858382  0.15684292     0.02600
C891        C  0.10653776  0.93140385  0.17162058     0.09500
C892        C  0.13574878  0.97979187  0.13274452     0.35400
C893        C  0.49681386  0.94088873  0.16781670     0.38800
C894        C  0.10580942  0.89999617  0.16418028    -0.04700
C895        C  0.12091828  0.88418075  0.17817883     0.02400
C896        C  0.13693682  0.89979983  0.19960270    -0.04300
C897        C  0.13988803  0.93259192  0.20624393    -0.00600
C898        C  0.12478368  0.94834862  0.19225822    -0.03100
C899        C  0.08856919  0.88346810  0.14244798     0.36100
C900        C  0.15632369  0.94896489  0.22822146     0.39700
C901        C  0.11993551  0.85176766  0.17065365     0.38900
C902        C  0.12672212  0.98134507  0.19950613     0.35800
C903        C  0.03515412  0.91005361  0.18657007     0.36500
C904        C  0.09574244  0.00730513  0.11087853     0.39700
N905        N  0.11947660  0.82605796  0.16464057    -0.38300
N906        N  0.07491224  0.87039426  0.12504427    -0.39900
N907        N  0.16929062  0.96203352  0.24577468    -0.37700
N908        N  0.12822028  0.50766658  0.20523229    -0.40100
N909        N  0.16472973  0.98898217  0.12661804    -0.39800
N910        N  0.10936742  0.02784562  0.09611444    -0.37500
N911        N  0.47123251  0.93508052  0.17793753    -0.38500
N912        N  0.02286464  0.89020307  0.20181913    -0.40200
C913        C  0.33653528  0.91839016  0.20424630    -0.05100
C914        C  0.33202123  0.90942159  0.18054291     0.09000
C915        C  0.29742903  0.88491582  0.17189780    -0.02500
C916        C  0.26731336  0.87023596  0.18678770    -0.00800
C917        C  0.27162252  0.88032105  0.21035751    -0.04400
C918        C  0.30649265  0.90392575  0.21909743     0.02600
C919        C  0.36390031  0.92637561  0.16475953     0.09500
C920        C  0.29287580  0.87514279  0.14761460     0.35400
C921        C  0.31199683  0.91223272  0.24356914     0.38800
C922        C  0.38053457  0.90711903  0.15742841    -0.04700
C923        C  0.41183366  0.92397985  0.14368326     0.02400
C924        C  0.42788303  0.96071166  0.13847067    -0.04300
C925        C  0.40962501  0.97909516  0.14411631    -0.00600
C926        C  0.37796861  0.96212614  0.15751784    -0.03100
C927        C  0.36570044  0.87012307  0.16429891     0.36100
C928        C  0.42295206  0.51515391  0.13562874     0.39700
C929        C  0.42696875  0.90331284  0.13438568     0.38900
C930        C  0.35982033  0.98139226  0.16393150     0.35800
C931        C  0.37231956  0.94232796  0.21337093     0.36500
C932        C  0.23177098  0.84540735  0.17774229     0.39700
N933        N  0.43901423  0.88677519  0.12701489    -0.38300
N934        N  0.35383347  0.84059164  0.16978457    -0.39900
N935        N  0.43362720  0.54388240  0.12879757    -0.37700
N936        N  0.34529107  0.99669202  0.16911179    -0.40100
N937        N  0.28939851  0.86728712  0.12824127    -0.39800
N938        N  0.20336326  0.82548688  0.17065811    -0.37500
N939        N  0.31741040  0.91907171  0.26303298    -0.38500
N940        N  0.40087016  0.96139457  0.22059799    -0.40200
C941        C  0.08708284  0.63429293  0.14243626    -0.05100
C942        C  0.07227858  0.63853595  0.16305909     0.09000
C943        C  0.04145936  0.60897824  0.17248667    -0.02500
C944        C  0.02393767  0.57590480  0.16059448    -0.00800
C945        C  0.03779056  0.57159560  0.13920493    -0.04400
C946        C  0.07080754  0.60092130  0.13099617     0.02600
C947        C  0.08965225  0.67405020  0.17520529     0.09500
C948        C  0.02801672  0.61260001  0.19478068     0.35400
C949        C  0.08947557  0.59709194  0.11129729     0.38800
C950        C  0.07270601  0.69467303  0.17548141    -0.04700
C951        C  0.08755508  0.72673151  0.18844693     0.02400
C952        C  0.12094791  0.73971279  0.20021035    -0.04300
C953        C  0.13953481  0.72048665  0.19769262    -0.00600
C954        C  0.12302542  0.68702589  0.18643501    -0.03100
C955        C  0.03951049  0.68243627  0.16261654     0.36100
C956        C  0.17610982  0.73509600  0.20614854     0.39700
C957        C  0.06724328  0.74502553  0.19026734     0.38900
C958        C  0.13997240  0.66533593  0.18697450     0.35800
C959        C  0.11943845  0.66450636  0.13300873     0.36500
C960        C  0.49188276  0.54694219  0.17104936     0.39700
N961        N  0.05071802  0.75929499  0.19173004    -0.38300
N962        N  0.01309689  0.67259876  0.15228425    -0.39900
N963        N  0.20536002  0.74673997  0.21269904    -0.37700
N964        N  0.15333420  0.64792357  0.18747290    -0.40100
N965        N  0.01736751  0.61541864  0.21257337    -0.39800
N966        N  0.46700680  0.52453095  0.18050963    -0.37500
N967        N  0.10461739  0.59486539  0.09543192    -0.38500
N968        N  0.14537011  0.68858119  0.12566025    -0.40200
O969        O  0.61010788  0.33515015  0.27086790    -0.81500
C970        C  0.73983683  0.36656049  0.22581188     0.97900
O971        O  0.73441790  0.38853495  0.23702529    -0.70600
O972        O  0.67816457  0.39293534  0.22347198    -0.74200
Al973      Al  0.69279244  0.38418320  0.25258257     1.49000
C974        C  0.64623832  0.37991639  0.21644933     0.93200
O975        O  0.62277051  0.29173279  0.21718476    -0.80400
O976        O  0.65824767  0.28489461  0.27889356    -0.73900
Al977      Al  0.61935160  0.31487427  0.24447746     1.90100
O978        O  0.65668292  0.27326464  0.23248639    -0.73000
O979        O  0.72406542  0.34138407  0.27475631    -0.72900
O980        O  0.71891501  0.33324648  0.22785805    -0.78500
O981        O  0.71070173  0.38255105  0.28224027    -0.76700
O982        O  0.66655330  0.33668459  0.25005362    -1.12900
O983        O  0.65705833  0.38945488  0.26855747    -0.72100
C984        C  0.62656787  0.36763363  0.27675223     0.98700
C985        C  0.63456984  0.27033509  0.21709656     0.95100
Al986      Al  0.68764854  0.31051644  0.25324339     1.55600
O987        O  0.62123067  0.35113957  0.22476307    -0.76700
C988        C  0.72856339  0.36764004  0.28674729     0.99200
C989        C  0.62427559  0.26638133  0.27791920     0.94100
O990        O  0.60702519  0.27372177  0.26332245    -0.82000
C991        C  0.49764791  0.49950108  0.09010959     0.86800
C992        C  0.51912728  0.48282321  0.10021556    -0.53400
C993        C  0.52089129  0.48267114  0.12391671     0.09800
C994        C  0.50035708  0.49924151  0.13539429     0.20700
C995        C  0.96083431  0.47938265  0.10156200    -0.54100
C996        C  0.96183900  0.47895829  0.12498526     0.09900
C997        C  0.51633555  0.03700926  0.10151244    -0.53700
C998        C  0.51805219  0.03731958  0.12521779     0.10400
H999        H  0.53244150  0.47254244  0.08935926     0.14900
H1000       H  0.50148157  0.99890598  0.15441907     0.00700
H1001       H  0.93573878  0.46643564  0.09186476     0.15300
H1002       H  0.52911591  0.06164770  0.09187945     0.15000
C1003       C  0.00462451  0.00521001  0.40904472     0.86800
C1004       C  0.51835377  0.04135738  0.39630259    -0.53400
C1005       C  0.51536057  0.03867576  0.37263906     0.09800
C1006       C  0.99952060  0.00011842  0.36383075     0.20700
C1007       C  0.96647592  0.48047982  0.39980671    -0.54100
C1008       C  0.96280280  0.47892437  0.37624756     0.09900
C1009       C  0.52766469  0.49143781  0.39796445    -0.53700
C1010       C  0.52394065  0.48716642  0.37469171     0.10400
H1011       H  0.53153235  0.06722776  0.40480890     0.14900
H1012       H  0.99803657  0.99875062  0.34477739     0.00700
H1013       H  0.94398101  0.46555275  0.41144150     0.15300
H1014       H  0.54541518  0.48510669  0.40756332     0.15000
O1015       O  0.88721789  0.16488435  0.77865213    -0.81500
C1016       C  0.76987315  0.13237579  0.71765497     0.97900
O1017       O  0.77717743  0.11168303  0.72849145    -0.70600
O1018       O  0.83883525  0.11361210  0.72406811    -0.74200
Al1019     Al  0.81262587  0.11660929  0.74978356     1.49000
C1020       C  0.87253244  0.12989962  0.72132073     0.93200
O1021       O  0.89069053  0.21771370  0.72500717    -0.80400
O1022       O  0.83416481  0.21495808  0.77718025    -0.73900
Al1023     Al  0.88510780  0.18923871  0.75173196     1.90100
O1024       O  0.84551780  0.22629315  0.73091487    -0.73000
O1025       O  0.77321600  0.15576095  0.76825467    -0.72900
O1026       O  0.78664450  0.16543934  0.72202234    -0.78500
O1027       O  0.78256745  0.11167755  0.77558339    -0.76700
O1028       O  0.83666848  0.16469237  0.75036769    -1.12900
O1029       O  0.84287143  0.11106433  0.77079050    -0.72100
C1030       C  0.87083320  0.13156842  0.78203609     0.98700
C1031       C  0.87487920  0.23505897  0.72112240     0.95100
Al1032     Al  0.81224292  0.18831644  0.74964472     1.55600
O1033       O  0.89229446  0.15838041  0.73220846    -0.76700
C1034       C  0.76489381  0.12729769  0.77883464     0.99200
C1035       C  0.86743778  0.23274087  0.78155231     0.94100
O1036       O  0.88890165  0.22551102  0.77156375    -0.82000
C1037       C  0.49930442  0.49699005  0.91214126     0.86800
C1038       C  0.97804356  0.46017621  0.90071517    -0.53400
C1039       C  0.97883851  0.46029523  0.87708633     0.09800
C1040       C  0.50058904  0.49828754  0.86670848     0.20700
C1041       C  0.53743549  0.01451596  0.90145182    -0.54100
C1042       C  0.53832318  0.01485740  0.87779100     0.09100
C1043       C  0.98423843  0.01921116  0.90122855    -0.53700
C1044       C  0.98396259  0.01916724  0.87760154     0.10400
H1045       H  0.96343781  0.43573026  0.91072143     0.14900
H1046       H  0.50127650  0.49909830  0.84752082     0.00700
H1047       H  0.56200937  0.02743126  0.91153718     0.15300
H1048       H  0.97482532  0.03416821  0.91111284     0.15000
C1049       C  0.50142284  0.49720291  0.58761072     0.86800
C1050       C  0.98199489  0.01446075  0.59938688    -0.53400
C1051       C  0.98412998  0.01585993  0.62303113     0.09800
C1052       C  0.50560861  0.49911662  0.63296783     0.20700
C1053       C  0.54007451  0.01688475  0.59739651    -0.54100
C1054       C  0.54259042  0.01887853  0.62087349     0.09900
C1055       C  0.98545576  0.46000218  0.59910764    -0.53700
C1056       C  0.98696627  0.46078554  0.62283748     0.10400
H1057       H  0.96745111  0.02457517  0.58962615     0.14900
H1058       H  0.50769198  0.50018907  0.65212377     0.00700
H1059       H  0.56395374  0.02759050  0.58667489     0.15300
H1060       H  0.97479625  0.43511286  0.58959646     0.15000
C1061       C  0.91978861  0.38773053  0.83297055    -0.05100
C1062       C  0.92535242  0.35962505  0.83960162     0.09000
C1063       C  0.94914582  0.36473393  0.85785987    -0.02500
C1064       C  0.96709597  0.39774452  0.86965600    -0.00800
C1065       C  0.96110593  0.42606489  0.86343961    -0.04400
C1066       C  0.93798297  0.42100283  0.84451498     0.02600
C1067       C  0.91018825  0.32647496  0.82518179     0.09500
C1068       C  0.95619997  0.33631792  0.86386875     0.35400
C1069       C  0.93344146  0.44986851  0.83599172     0.38800
C1070       C  0.92837636  0.32683295  0.80487058    -0.04700
C1071       C  0.91462722  0.29613396  0.79086234     0.02400
C1072       C  0.88249289  0.26437728  0.79721548    -0.04300
C1073       C  0.86479519  0.26385010  0.81795123    -0.00600
C1074       C  0.87831438  0.29506007  0.83168321    -0.03100
C1075       C  0.96117992  0.35925071  0.79822646     0.36100
C1076       C  0.83370113  0.23086080  0.82570091     0.39700
C1077       C  0.93344119  0.29801046  0.76957683     0.38900
C1078       C  0.85920342  0.29517163  0.85228832     0.35800
C1079       C  0.89587311  0.38249272  0.81372828     0.36500
C1080       C  0.99408985  0.40334679  0.88683858     0.39700
N1081       N  0.94874835  0.29977430  0.75271678    -0.38300
N1082       N  0.98721539  0.38517955  0.79296683    -0.39900
N1083       N  0.80913948  0.20438115  0.83194334    -0.37700
N1084       N  0.84384656  0.29542598  0.86864660    -0.40100
N1085       N  0.96184390  0.31364832  0.86857456    -0.39800
N1086       N  0.51576316  0.40770700  0.90038363    -0.37500
N1087       N  0.92960731  0.47220701  0.82802621    -0.38500
N1088       N  0.87685035  0.37819496  0.79834787    -0.40200
C1089       C  0.61130961  0.02851459  0.83408743    -0.05100
C1090       C  0.63832949  0.06412896  0.83861154     0.09000
C1091       C  0.63287872  0.08354568  0.85613315    -0.02500
C1092       C  0.60060818  0.06746941  0.86909582    -0.00800
C1093       C  0.57298928  0.03179706  0.86433957    -0.04400
C1094       C  0.57876085  0.01247649  0.84672162     0.02600
C1095       C  0.67158404  0.08172810  0.82385422     0.09500
C1096       C  0.66020422  0.12052619  0.86032043     0.35400
C1097       C  0.55180430  0.47578073  0.84157494     0.38800
C1098       C  0.67048828  0.09597865  0.80215258    -0.04700
C1099       C  0.70093532  0.11098324  0.78757554     0.02400
C1100       C  0.73299849  0.11181508  0.79456143    -0.04300
C1101       C  0.73428688  0.09830022  0.81659445    -0.00600
C1102       C  0.70373701  0.08347545  0.83120235    -0.03100
C1103       C  0.63782262  0.09524551  0.79488832     0.36100
C1104       C  0.76745666  0.10086295  0.82460873     0.39700
C1105       C  0.69867940  0.12482237  0.76514232     0.38900
C1106       C  0.70540891  0.07033329  0.85394991     0.35800
C1107       C  0.61707282  0.00837990  0.81621288     0.36500
C1108       C  0.59508248  0.08865655  0.88629918     0.39700
N1109       N  0.69676819  0.13599136  0.74734242    -0.38300
N1110       N  0.61174350  0.09466168  0.78919940    -0.39900
N1111       N  0.79405316  0.10310244  0.83091205    -0.37700
N1112       N  0.70676948  0.06006913  0.87218838    -0.40100
N1113       N  0.68203023  0.15005922  0.86355314    -0.39800
N1114       N  0.59054049  0.10561169  0.89989519    -0.37500
N1115       N  0.53113097  0.44651313  0.83670272    -0.38500
N1116       N  0.62170619  0.49235390  0.80196307    -0.40200
C1117       C  0.91376100  0.11523549  0.83493237    -0.05100
C1118       C  0.91573202  0.08522935  0.82753437     0.09000
C1119       C  0.90232356  0.07008958  0.80562102    -0.02500
C1120       C  0.88710211  0.08487512  0.79103062    -0.00800
C1121       C  0.88550543  0.11539838  0.79817334    -0.04400
C1122       C  0.89863695  0.13032129  0.82028840     0.02600
C1123       C  0.93360835  0.07018419  0.84204826     0.09500
C1124       C  0.90525163  0.03977487  0.79780495     0.35400
C1125       C  0.89575391  0.16055610  0.82819579     0.38800
C1126       C  0.91269538  0.03915461  0.85529865    -0.04700
C1127       C  0.92904915  0.02182180  0.86614062     0.02400
C1128       C  0.96667435  0.03603137  0.86436516    -0.04300
C1129       C  0.98736457  0.06670037  0.85064645    -0.00600
C1130       C  0.97090382  0.08390661  0.83974660    -0.03100
C1131       C  0.87411345  0.02443501  0.85708261     0.36100
C1132       C  0.52523930  0.08006964  0.84673942     0.39700
C1133       C  0.90650930  0.48708384  0.87666340     0.38900
C1134       C  0.99211280  0.11534593  0.82556758     0.35800
C1135       C  0.92775999  0.13076699  0.85747689     0.36500
C1136       C  0.87432273  0.06907968  0.76831310     0.39700
N1137       N  0.88809581  0.45871184  0.88406500    -0.38300
N1138       N  0.84334152  0.51270218  0.85849744    -0.39900
N1139       N  0.55536376  0.09157419  0.84253149    -0.37700
N1140       N  0.50882190  0.14043814  0.81424774    -0.40100
N1141       N  0.90774909  0.01573454  0.79156433    -0.39800
N1142       N  0.86410272  0.05608790  0.75031762    -0.37500
N1143       N  0.89328816  0.18462664  0.83442147    -0.38500
N1144       N  0.93905761  0.14320675  0.87545307    -0.40200
C1145       C  0.90439398  0.32881365  0.69854048    -0.05100
C1146       C  0.92331189  0.33026037  0.67833100     0.09000
C1147       C  0.92625389  0.30041539  0.67189783    -0.02500
C1148       C  0.91044364  0.26917289  0.68568168    -0.00800
C1149       C  0.89136577  0.26752938  0.70602362    -0.04400
C1150       C  0.88830410  0.29767995  0.71225823     0.02600
C1151       C  0.93997100  0.36341129  0.66378057     0.09500
C1152       C  0.94538896  0.30191780  0.65091232     0.35400
C1153       C  0.86929585  0.29741442  0.73309628     0.38800
C1154       C  0.97582620  0.39062160  0.66772523    -0.04700
C1155       C  0.99158697  0.42194699  0.65406890     0.02400
C1156       C  0.97090397  0.42731429  0.63718426    -0.04300
C1157       C  0.93405309  0.40090672  0.63456738    -0.00600
C1158       C  0.91914928  0.36858531  0.64711690    -0.03100
C1159       C  0.99610078  0.38677806  0.68644962     0.36100
C1160       C  0.91008943  0.40874625  0.62155474     0.39700
C1161       C  0.52908123  0.44832451  0.65775671     0.38900
C1162       C  0.88189199  0.34098796  0.64349985     0.35800
C1163       C  0.90177831  0.35970364  0.70532840     0.36500
C1164       C  0.91270407  0.23833826  0.67837934     0.39700
N1165       N  0.55906311  0.46853673  0.66151496    -0.38300
N1166       N  0.51203060  0.38387652  0.70160544    -0.39900
N1167       N  0.88999325  0.41489305  0.61229155    -0.37700
N1168       N  0.85222084  0.31886166  0.64064275    -0.40100
N1169       N  0.96066760  0.30328187  0.63412589    -0.39800
N1170       N  0.91440172  0.21367293  0.67254042    -0.37500
N1171       N  0.85397636  0.29723512  0.74959652    -0.38500
N1172       N  0.89972333  0.38431551  0.71078954    -0.40200
C1173       C  0.62014787  0.08318370  0.66035792    -0.05100
C1174       C  0.64609624  0.07332772  0.65583952     0.09000
C1175       C  0.63891384  0.04672588  0.63923094    -0.02500
C1176       C  0.60527721  0.02897102  0.62781579    -0.00800
C1177       C  0.57837442  0.03775103  0.63297714    -0.04400
C1178       C  0.58642990  0.06548009  0.64908105     0.02600
C1179       C  0.67910125  0.08797338  0.67064615     0.09500
C1180       C  0.66607872  0.03723100  0.63429427     0.35400
C1181       C  0.56075792  0.07679145  0.65406277     0.38800
C1182       C  0.67824062  0.06925006  0.69075982    -0.04700
C1183       C  0.70813539  0.08334251  0.70572620     0.02400
C1184       C  0.73943094  0.11671906  0.70077290    -0.04300
C1185       C  0.74044918  0.13512516  0.68028483    -0.00600
C1186       C  0.71031662  0.12074492  0.66529552    -0.03100
C1187       C  0.64596865  0.03568818  0.69638015     0.36100
C1188       C  0.77268595  0.16843053  0.67431953     0.39700
C1189       C  0.70564513  0.06379583  0.72672989     0.38900
C1190       C  0.71119350  0.13972062  0.64443773     0.35800
C1191       C  0.62820916  0.11152176  0.67689836     0.36500
C1192       C  0.59780552  0.00018501  0.61180988     0.39700
N1193       N  0.70360904  0.04809859  0.74340574    -0.38300
N1194       N  0.62025804  0.50899318  0.70092513    -0.39900
N1195       N  0.79847645  0.19498117  0.66962281    -0.37700
N1196       N  0.71185439  0.15485822  0.62778664    -0.40100
N1197       N  0.68790364  0.02984919  0.63040838    -0.39800
N1198       N  0.59191759  0.97722201  0.59907070    -0.37500
N1199       N  0.54162057  0.08719663  0.65892982    -0.38500
N1200       N  0.63476591  0.13423765  0.69000175    -0.40200
C1201       C  0.95923810  0.08408883  0.64531595    -0.05100
C1202       C  0.93774778  0.06626049  0.66463168     0.09000
C1203       C  0.93184011  0.03225476  0.67070900    -0.02500
C1204       C  0.94673635  0.01567012  0.65727502    -0.00800
C1205       C  0.96787715  0.03306800  0.63746791    -0.04400
C1206       C  0.97413225  0.06767558  0.63173560     0.02600
C1207       C  0.92149586  0.08348545  0.67880285     0.09500
C1208       C  0.91041257  0.01439767  0.69101859     0.35400
C1209       C  0.49790139  0.08782254  0.61283060     0.38800
C1210       C  0.88905726  0.08125960  0.67172205    -0.04700
C1211       C  0.87303537  0.09648553  0.68541157     0.02400
C1212       C  0.88978549  0.11477246  0.70616593    -0.04300
C1213       C  0.92287188  0.11744440  0.71296513    -0.00600
C1214       C  0.93830060  0.10152230  0.69944483    -0.03100
C1215       C  0.87210116  0.06299572  0.65030934     0.36100
C1216       C  0.94068580  0.13526675  0.73436112     0.39700
C1217       C  0.83958395  0.09371497  0.67783702     0.38900
C1218       C  0.97127556  0.10308047  0.70695958     0.35800
C1219       C  0.96679522  0.11991007  0.63982758     0.36500
C1220       C  0.93935892  0.48046522  0.66409676     0.39700
N1221       N  0.81280124  0.09138244  0.67187222    -0.38300
N1222       N  0.85880495  0.04849078  0.63315898    -0.39900
N1223       N  0.95505957  0.14947762  0.75136558    -0.37700
N1224       N  0.99740270  0.10405316  0.71299833    -0.40100
N1225       N  0.89348155  0.50031969  0.70728045    -0.39800
N1226       N  0.93276988  0.45260007  0.67067445    -0.37500
N1227       N  0.51684031  0.10435436  0.59786169    -0.38500
N1228       N  0.97290549  0.14853281  0.63555559    -0.40200
C1229       C  0.52787052  0.02903133  0.52403788    -0.05100
C1230       C  0.00068955  0.00051357  0.51130798     0.09000
C1231       C  0.97123196  0.47271647  0.52308132    -0.02500
C1232       C  0.97051747  0.47176695  0.54755686    -0.00800
C1233       C  0.49961494  0.99883768  0.56074582    -0.04400
C1234       C  0.52572085  0.02966553  0.54834191     0.02600
C1235       C  0.00138917  0.00156578  0.48537305     0.09500
C1236       C  0.94098740  0.44552915  0.50984978     0.35400
C1237       C  0.54857717  0.06357253  0.55987284     0.38800
C1238       C  0.50597026  0.47651486  0.47266040    -0.04700
C1239       C  0.50420000  0.47614128  0.44829731     0.02400
C1240       C  0.00419264  0.00478609  0.43594757    -0.04300
C1241       C  0.99711212  0.02847832  0.44913925    -0.00600
C1242       C  0.99527372  0.02638173  0.47355029    -0.03100
C1243       C  0.51174016  0.45044998  0.48474758     0.36100
C1244       C  0.98881827  0.05355212  0.43829297     0.39700
C1245       C  0.49850260  0.44400923  0.43659045     0.38900
C1246       C  0.98569914  0.04901245  0.48667598     0.35800
C1247       C  0.55802485  0.05817205  0.51199209     0.36500
C1248       C  0.93796654  0.44434211  0.55840700     0.39700
N1249       N  0.49372698  0.41814617  0.42749765    -0.38300
N1250       N  0.51640942  0.42973665  0.49439006    -0.39900
N1251       N  0.98232125  0.07430668  0.43062674    -0.37700
N1252       N  0.97790876  0.06682869  0.49719939    -0.40100
N1253       N  0.91692340  0.42394688  0.49927542    -0.39800
N1254       N  0.91109391  0.42168897  0.56575728    -0.37500
N1255       N  0.56717243  0.09084388  0.56870236    -0.38500
N1256       N  0.58203229  0.08129274  0.50232746    -0.40200
C1257       C  0.98402111  0.46220739  0.02746705    -0.05100
C1258       C  0.49414627  0.49300566  0.01413576     0.09000
C1259       C  0.50073665  0.02470540  0.02513284    -0.02500
C1260       C  0.49753281  0.02572602  0.04934098    -0.00800
C1261       C  0.49403232  0.49703795  0.06333847    -0.04400
C1262       C  0.98415217  0.46410183  0.05186838     0.02600
C1263       C  0.49427226  0.49126075  0.98828443     0.09500
C1264       C  0.50980476  0.05614854  0.01132949     0.35400
C1265       C  0.97208541  0.43134573  0.06488056     0.38800
C1266       C  0.96554247  0.48944868  0.97560702    -0.04700
C1267       C  0.96636730  0.48995904  0.95119892     0.02400
C1268       C  0.49687969  0.49356492  0.93895500    -0.04300
C1269       C  0.52254805  0.98923719  0.95213517    -0.00600
C1270       C  0.52234035  0.99031818  0.97655345    -0.03100
C1271       C  0.93471734  0.48659329  0.98788028     0.36100
C1272       C  0.54706896  0.97995333  0.94123594     0.39700
C1273       C  0.93428308  0.48442044  0.93936745     0.38900
C1274       C  0.55104427  0.99029424  0.98974597     0.35800
C1275       C  0.97251006  0.42830078  0.01594738     0.36500
C1276       C  0.49152149  0.05334164  0.05863733     0.39700
N1277       N  0.90792432  0.48011044  0.93107062    -0.38300
N1278       N  0.91023743  0.48433799  0.99770540    -0.39900
N1279       N  0.56679798  0.97246501  0.93285616    -0.37700
N1280       N  0.57391059  0.99036314  0.00033576    -0.40100
N1281       N  0.51714152  0.08113947  0.00023624    -0.39800
N1282       N  0.48635832  0.07537559  0.06567894    -0.37500
N1283       N  0.96238293  0.40503008  0.07503465    -0.38500
N1284       N  0.96310222  0.40127244  0.00671114    -0.40200
C1285       C  0.60614539  0.40314824  0.33118774    -0.05100
C1286       C  0.58180977  0.41320429  0.32254789     0.09000
C1287       C  0.57098971  0.40658896  0.29911345    -0.02500
C1288       C  0.58450077  0.39016099  0.28441319    -0.00800
C1289       C  0.60963229  0.38116748  0.29288032    -0.04400
C1290       C  0.62062258  0.38785484  0.31623604     0.02600
C1291       C  0.56798105  0.43149875  0.33783829     0.09500
C1292       C  0.54665928  0.41759617  0.29000347     0.35400
C1293       C  0.64736186  0.37964410  0.32471107     0.38800
C1294       C  0.59055456  0.46771982  0.34414688    -0.04700
C1295       C  0.57655086  0.48563488  0.35699249     0.02400
C1296       C  0.53947343  0.46809910  0.36224367    -0.04300
C1297       C  0.51789889  0.43104712  0.35801344    -0.00600
C1298       C  0.53193495  0.41290419  0.34551803    -0.03100
C1299       C  0.62800312  0.48667145  0.33708744     0.36100
C1300       C  0.98186491  0.41118910  0.36758940     0.39700
C1301       C  0.60033258  0.02186890  0.36511101     0.38900
C1302       C  0.50932659  0.37506318  0.34056817     0.35800
C1303       C  0.61636370  0.40870785  0.35541641     0.36500
C1304       C  0.57347535  0.38353433  0.26033757     0.39700
N1305       N  0.61924998  0.05074882  0.37163017    -0.38300
N1306       N  0.65789603  0.00167698  0.33147447    -0.39900
N1307       N  0.95319966  0.39530616  0.37533025    -0.37700
N1308       N  0.99123298  0.34488691  0.33658316    -0.40100
N1309       N  0.52727628  0.42645667  0.28281775    -0.39800
N1310       N  0.56475286  0.37815947  0.24112399    -0.37500
N1311       N  0.66891935  0.37336301  0.33139770    -0.38500
N1312       N  0.62450339  0.41315476  0.37475510    -0.40200
C1313       C  0.86234415  0.44527809  0.36526947    -0.05100
C1314       C  0.85641457  0.42772218  0.34391548     0.09000
C1315       C  0.88506339  0.42702975  0.33269777    -0.02500
C1316       C  0.91954480  0.44310982  0.34303725    -0.00800
C1317       C  0.92620867  0.46153038  0.36456291    -0.04400
C1318       C  0.89715568  0.46354462  0.37499653     0.02600
C1319       C  0.82054467  0.41214836  0.33225324     0.09500
C1320       C  0.87895580  0.40997024  0.31016323     0.35400
C1321       C  0.90266362  0.48600762  0.39502710     0.38800
C1322       C  0.81087854  0.43488940  0.32095412    -0.04700
C1323       C  0.77920261  0.42038380  0.30753348     0.02400
C1324       C  0.75728492  0.38273539  0.30484150    -0.04300
C1325       C  0.76605590  0.36006817  0.31743650    -0.00600
C1326       C  0.79740262  0.37481490  0.33123272    -0.03100
C1327       C  0.83474661  0.47338076  0.32211145     0.36100
C1328       C  0.74340672  0.32148793  0.31594572     0.39700
C1329       C  0.77152788  0.44465645  0.29479913     0.38900
C1330       C  0.80652346  0.35161149  0.34395370     0.35800
C1331       C  0.83232939  0.44462665  0.37720196     0.36500
C1332       C  0.94739570  0.44025869  0.33088052     0.39700
N1333       N  0.76580771  0.46421450  0.28456831    -0.38300
N1334       N  0.85386511  0.00403429  0.32305553    -0.39900
N1335       N  0.72569775  0.29067634  0.31472617    -0.37700
N1336       N  0.81390561  0.33320004  0.35412088    -0.40100
N1337       N  0.87396022  0.39638930  0.29220981    -0.39800
N1338       N  0.96879624  0.43771137  0.32027315    -0.37500
N1339       N  0.90638681  0.50352004  0.41110143    -0.38500
N1340       N  0.80833117  0.44386531  0.38674944    -0.40200
C1341       C  0.52811087  0.12673377  0.34889377    -0.05100
C1342       C  0.55651683  0.13661987  0.33312148     0.09000
C1343       C  0.56860351  0.11255567  0.32827804    -0.02500
C1344       C  0.55288088  0.07907471  0.33946469    -0.00800
C1345       C  0.52715421  0.07066374  0.35724528    -0.04400
C1346       C  0.51328861  0.09379577  0.36075418     0.02600
C1347       C  0.57157009  0.17085372  0.31982325     0.09500
C1348       C  0.59720915  0.12228773  0.31152297     0.35400
C1349       C  0.98103274  0.08198594  0.37438704     0.38800
C1350       C  0.59817333  0.20339187  0.32968119    -0.04700
C1351       C  0.61435420  0.23502599  0.31634507     0.02400
C1352       C  0.60449671  0.23417137  0.29288431    -0.04300
C1353       C  0.57670002  0.20163610  0.28336457    -0.00600
C1354       C  0.56025215  0.17026443  0.29685091    -0.03100
C1355       C  0.60926252  0.20410809  0.35346803     0.36100
C1356       C  0.56568823  0.19966543  0.25940993     0.39700
C1357       C  0.64032656  0.26862523  0.32702257     0.38900
C1358       C  0.53206382  0.13696394  0.28694975     0.35800
C1359       C  0.51363953  0.15019349  0.35247794     0.36500
C1360       C  0.56102848  0.05268330  0.33072897     0.39700
N1361       N  0.66081102  0.29546866  0.33562358    -0.38300
N1362       N  0.61805683  0.20462963  0.37246287    -0.39900
N1363       N  0.55644940  0.19766601  0.24038416    -0.37700
N1364       N  0.50964480  0.11035842  0.27910779    -0.40100
N1365       N  0.62007654  0.13018909  0.29820986    -0.39800
N1366       N  0.56703671  0.03216391  0.32209339    -0.37500
N1367       N  0.95457108  0.07278182  0.38445351    -0.38500
N1368       N  0.50213041  0.16895404  0.35527403    -0.40200
C1369       C  0.55026671  0.43475193  0.16729010    -0.05100
C1370       C  0.58490227  0.44462686  0.15918918     0.09000
C1371       C  0.59944183  0.46836650  0.14042034    -0.02500
C1372       C  0.57900100  0.48133197  0.12930072    -0.00800
C1373       C  0.54349908  0.47067613  0.13689582    -0.04400
C1374       C  0.53018710  0.44858404  0.15684302     0.02600
C1375       C  0.60653788  0.43140392  0.17162056     0.09500
C1376       C  0.63574885  0.47979191  0.13274441     0.35400
C1377       C  0.99681378  0.44088871  0.16781672     0.38800
C1378       C  0.60580949  0.39999621  0.16418029    -0.04700
C1379       C  0.62091829  0.38418075  0.17817886     0.02400
C1380       C  0.63693683  0.39979984  0.19960274    -0.04300
C1381       C  0.63988802  0.43259192  0.20624398    -0.00600
C1382       C  0.62478370  0.44834863  0.19225825    -0.03100
C1383       C  0.58856947  0.38346829  0.14244791     0.36100
C1384       C  0.65632356  0.44896485  0.22822156     0.39700
C1385       C  0.61993559  0.35176770  0.17065367     0.38900
C1386       C  0.62672214  0.48134509  0.19950614     0.35800
C1387       C  0.53515433  0.41005382  0.18657018     0.36500
C1388       C  0.59574252  0.50730523  0.11087853     0.39700
N1389       N  0.61947690  0.32605810  0.16464056    -0.38300
N1390       N  0.57491273  0.37039471  0.12504412    -0.39900
N1391       N  0.66929037  0.46203343  0.24577483    -0.37700
N1392       N  0.62822004  0.00766659  0.20523231    -0.40100
N1393       N  0.66472979  0.48898230  0.12661786    -0.39800
N1394       N  0.60936753  0.52784570  0.09611442    -0.37500
N1395       N  0.97123247  0.43508070  0.17793751    -0.38500
N1396       N  0.52286479  0.39020333  0.20181927    -0.40200
C1397       C  0.83653523  0.41839027  0.20424622    -0.05100
C1398       C  0.83202119  0.40942174  0.18054282     0.09000
C1399       C  0.79742900  0.38491602  0.17189769    -0.02500
C1400       C  0.76731333  0.37023619  0.18678759    -0.00800
C1401       C  0.77162250  0.38032116  0.21035743    -0.04400
C1402       C  0.80649263  0.40392577  0.21909737     0.02600
C1403       C  0.86390030  0.42637576  0.16475946     0.09500
C1404       C  0.79287576  0.37514309  0.14761448     0.35400
C1405       C  0.81199684  0.41223258  0.24356911     0.38800
C1406       C  0.88053450  0.40711914  0.15742829    -0.04700
C1407       C  0.91183366  0.42397998  0.14368322     0.02400
C1408       C  0.92788313  0.46071182  0.13847068    -0.04300
C1409       C  0.90962512  0.47909532  0.14411632    -0.00600
C1410       C  0.87796871  0.46212633  0.15751782    -0.03100
C1411       C  0.86570026  0.37012311  0.16429874     0.36100
C1412       C  0.92295196  0.01515404  0.13562856     0.39700
C1413       C  0.92696876  0.40331294  0.13438569     0.38900
C1414       C  0.85982036  0.48139245  0.16393139     0.35800
C1415       C  0.87231947  0.44232809  0.21337084     0.36500
C1416       C  0.73177089  0.34540774  0.17774215     0.39700
N1417       N  0.93901418  0.38677519  0.12701505    -0.38300
N1418       N  0.85383327  0.34059169  0.16978438    -0.39900
N1419       N  0.93362707  0.04388255  0.12879741    -0.37700
N1420       N  0.84529103  0.49669216  0.16911158    -0.40100
N1421       N  0.78939850  0.36728756  0.12824112    -0.39800
N1422       N  0.70336316  0.32548743  0.17065796    -0.37500
N1423       N  0.81741045  0.41907139  0.26303297    -0.38500
N1424       N  0.90087010  0.46139467  0.22059789    -0.40200
C1425       C  0.58708285  0.13429292  0.14243612    -0.05100
C1426       C  0.57227867  0.13853596  0.16305898     0.09000
C1427       C  0.54145946  0.10897828  0.17248660    -0.02500
C1428       C  0.52393772  0.07590484  0.16059441    -0.00800
C1429       C  0.53779052  0.07159558  0.13920486    -0.04400
C1430       C  0.57080745  0.10092127  0.13099604     0.02600
C1431       C  0.58965237  0.17405024  0.17520513     0.09500
C1432       C  0.52801682  0.11260007  0.19478060     0.35400
C1433       C  0.58947539  0.09709190  0.11129711     0.38800
C1434       C  0.57270611  0.19467305  0.17548123    -0.04700
C1435       C  0.58755516  0.22673151  0.18844677     0.02400
C1436       C  0.62094793  0.23971281  0.20021024    -0.04300
C1437       C  0.63953487  0.22048670  0.19769251    -0.00600
C1438       C  0.62302553  0.18702595  0.18643487    -0.03100
C1439       C  0.53951054  0.18243624  0.16261641     0.36100
C1440       C  0.67610985  0.23509605  0.20614844     0.39700
C1441       C  0.56724334  0.24502550  0.19026718     0.38900
C1442       C  0.63997254  0.16533599  0.18697440     0.35800
C1443       C  0.61943855  0.16450626  0.13300859     0.36500
C1444       C  0.99188268  0.04694222  0.17104929     0.39700
N1445       N  0.55071805  0.25929491  0.19172986    -0.38300
N1446       N  0.51309682  0.17259867  0.15228421    -0.39900
N1447       N  0.70536007  0.24673996  0.21269891    -0.37700
N1448       N  0.65333432  0.14792363  0.18747276    -0.40100
N1449       N  0.51736759  0.11541881  0.21257326    -0.39800
N1450       N  0.96700657  0.02453093  0.18050947    -0.37500
N1451       N  0.60461715  0.09486531  0.09543172    -0.38500
N1452       N  0.64537030  0.18858096  0.12566006    -0.40200
O1453       O  0.61010799  0.83515038  0.27086788    -0.81500
C1454       C  0.73983702  0.86656069  0.22581197     0.97900
O1455       O  0.73441809  0.88853516  0.23702535    -0.70600
O1456       O  0.67816481  0.89293564  0.22347202    -0.74200
Al1457     Al  0.69279267  0.88418346  0.25258262     1.49000
C1458       C  0.64623857  0.87991668  0.21644935     0.93200
O1459       O  0.62277082  0.79173306  0.21718480    -0.80400
O1460       O  0.65824778  0.78489485  0.27889371    -0.73900
Al1461     Al  0.61935182  0.81487452  0.24447747     1.90100
O1462       O  0.65668311  0.77326483  0.23248652    -0.73000
O1463       O  0.72406555  0.84138428  0.27475641    -0.72900
O1464       O  0.71891520  0.83324667  0.22785816    -0.78500
O1465       O  0.71070202  0.88255139  0.28224031    -0.76700
O1466       O  0.66655350  0.83668484  0.25005369    -1.12900
O1467       O  0.65705854  0.88945507  0.26855752    -0.72100
C1468       C  0.62656802  0.86763385  0.27675223     0.98700
C1469       C  0.63457012  0.77033533  0.21709664     0.95100
Al1470     Al  0.68764870  0.81051665  0.25324351     1.55600
O1471       O  0.62123092  0.85113984  0.22476308    -0.76700
C1472       C  0.72856360  0.86764030  0.28674735     0.99200
C1473       C  0.62427569  0.76638159  0.27791930     0.94100
O1474       O  0.60702538  0.77372204  0.26332248    -0.82000
C1475       C  0.49764777  0.99950077  0.09010956     0.86800
C1476       C  0.51912720  0.98282299  0.10021553    -0.53400
C1477       C  0.52089117  0.98267092  0.12391668     0.09800
C1478       C  0.50035692  0.99924124  0.13539426     0.20700
C1479       C  0.96083434  0.97938280  0.10156195    -0.54100
C1480       C  0.96183898  0.97895842  0.12498520     0.09900
C1481       C  0.51633575  0.53700955  0.10151247    -0.53700
C1482       C  0.51805238  0.53731987  0.12521782     0.10400
H1483       H  0.53244148  0.97254228  0.08935924     0.14900
H1484       H  0.50148180  0.49890630  0.15441909     0.00700
H1485       H  0.93573877  0.96643574  0.09186466     0.15300
H1486       H  0.52911619  0.56164805  0.09187948     0.15000
C1487       C  0.00462429  0.50520991  0.40904470     0.86800
C1488       C  0.51835394  0.54135752  0.39630260    -0.53400
C1489       C  0.51536073  0.53867589  0.37263907     0.09800
C1490       C  0.99952044  0.50011838  0.36383072     0.20700
C1491       C  0.96647612  0.98047985  0.39980677    -0.54100
C1492       C  0.96280299  0.97892437  0.37624760     0.09900
C1493       C  0.52766430  0.99143750  0.39796445    -0.53700
C1494       C  0.52394030  0.98716617  0.37469170     0.10400
H1495       H  0.53153247  0.56722790  0.40480891     0.14900
H1496       H  0.99803643  0.49875059  0.34477737     0.00700
H1497       H  0.94398125  0.96555283  0.41144153     0.15300
H1498       H  0.54541469  0.98510626  0.40756329     0.15000
O1499       O  0.88721793  0.66488426  0.77865211    -0.81500
C1500       C  0.76987321  0.63237572  0.71765494     0.97900
O1501       O  0.77717751  0.61168299  0.72849144    -0.70600
O1502       O  0.83883536  0.61361210  0.72406813    -0.74200
Al1503     Al  0.81262595  0.61660927  0.74978356     1.49000
C1504       C  0.87253255  0.62989964  0.72132074     0.93200
O1505       O  0.89069072  0.71771375  0.72500720    -0.80400
O1506       O  0.83416492  0.71495809  0.77718019    -0.73900
Al1507     Al  0.88510791  0.68923869  0.75173196     1.90100
O1508       O  0.84551782  0.72629298  0.73091475    -0.73000
O1509       O  0.77321607  0.65576093  0.76825462    -0.72900
O1510       O  0.78664455  0.66543927  0.72202230    -0.78500
O1511       O  0.78256754  0.61167756  0.77558341    -0.76700
O1512       O  0.83666858  0.66469234  0.75036767    -1.12900
O1513       O  0.84287143  0.61106425  0.77079052    -0.72100
C1514       C  0.87083319  0.63156834  0.78203611     0.98700
C1515       C  0.87487930  0.73505891  0.72112236     0.95100
Al1516     Al  0.81224299  0.68831639  0.74964466     1.55600
O1517       O  0.89229458  0.65838042  0.73220845    -0.76700
C1518       C  0.76489388  0.62729768  0.77883463     0.99200
C1519       C  0.86743788  0.73274088  0.78155229     0.94100
O1520       O  0.88890178  0.72551103  0.77156376    -0.82000
C1521       C  0.49930429  0.99698985  0.91214123     0.86800
C1522       C  0.97804351  0.96017624  0.90071518    -0.53400
C1523       C  0.97883844  0.96029522  0.87708633     0.09800
C1524       C  0.50058904  0.99828750  0.86670844     0.20700
C1525       C  0.53743559  0.51451614  0.90145181    -0.54100
C1526       C  0.53832324  0.51485755  0.87779099     0.09100
C1527       C  0.98423842  0.51921110  0.90122857    -0.53700
C1528       C  0.98396262  0.51916721  0.87760155     0.10400
H1529       H  0.96343777  0.93573032  0.91072143     0.14900
H1530       H  0.50127660  0.99909838  0.84752080     0.00700
H1531       H  0.56200954  0.52743149  0.91153716     0.15300
H1532       H  0.97482530  0.53416809  0.91111285     0.15000
C1533       C  0.50142281  0.99720293  0.58761071     0.86800
C1534       C  0.98199483  0.51446069  0.59938684    -0.53400
C1535       C  0.98412997  0.51585991  0.62303108     0.09800
C1536       C  0.50560869  0.99911665  0.63296782     0.20700
C1537       C  0.54007451  0.51688459  0.59739656    -0.54100
C1538       C  0.54259039  0.51887842  0.62087354     0.09900
C1539       C  0.98545595  0.96000232  0.59910765    -0.53700
C1540       C  0.98696638  0.96078564  0.62283751     0.10400
H1541       H  0.96745108  0.52457516  0.58962609     0.14900
H1542       H  0.50769212  0.00018909  0.65212375     0.00700
H1543       H  0.56395377  0.52759026  0.58667493     0.15300
H1544       H  0.97479657  0.93511309  0.58959647     0.15000
C1545       C  0.91978859  0.88773060  0.83297052    -0.05100
C1546       C  0.92535227  0.85962505  0.83960161     0.09000
C1547       C  0.94914552  0.86473382  0.85785994    -0.02500
C1548       C  0.96709576  0.89774442  0.86965606    -0.00800
C1549       C  0.96110584  0.92606486  0.86343964    -0.04400
C1550       C  0.93798291  0.92100286  0.84451500     0.02600
C1551       C  0.91018817  0.82647499  0.82518174     0.09500
C1552       C  0.95619951  0.83631773  0.86386884     0.35400
C1553       C  0.93344133  0.94986856  0.83599183     0.38800
C1554       C  0.92837631  0.82683300  0.80487054    -0.04700
C1555       C  0.91462724  0.79613401  0.79086231     0.02400
C1556       C  0.88249292  0.76437730  0.79721545    -0.04300
C1557       C  0.86479512  0.76385014  0.81795117    -0.00600
C1558       C  0.87831428  0.79506009  0.83168316    -0.03100
C1559       C  0.96117991  0.85925077  0.79822645     0.36100
C1560       C  0.83370110  0.73086078  0.82570087     0.39700
C1561       C  0.93344130  0.79801050  0.76957681     0.38900
C1562       C  0.85920331  0.79517159  0.85228830     0.35800
C1563       C  0.89587325  0.88249289  0.81372814     0.36500
C1564       C  0.99408953  0.90334654  0.88683869     0.39700
N1565       N  0.94874854  0.79977436  0.75271680    -0.38300
N1566       N  0.98721545  0.88517953  0.79296685    -0.39900
N1567       N  0.80913959  0.70438107  0.83194332    -0.37700
N1568       N  0.84384641  0.79542582  0.86864658    -0.40100
N1569       N  0.96184329  0.81364805  0.86857471    -0.39800
N1570       N  0.51576285  0.90770680  0.90038351    -0.37500
N1571       N  0.92960706  0.97220702  0.82802641    -0.38500
N1572       N  0.87685069  0.87819511  0.79834765    -0.40200
C1573       C  0.61130963  0.52851476  0.83408737    -0.05100
C1574       C  0.63832949  0.56412913  0.83861147     0.09000
C1575       C  0.63287872  0.58354585  0.85613306    -0.02500
C1576       C  0.60060818  0.56746962  0.86909573    -0.00800
C1577       C  0.57298929  0.53179726  0.86433951    -0.04400
C1578       C  0.57876086  0.51247669  0.84672156     0.02600
C1579       C  0.67158406  0.58172827  0.82385417     0.09500
C1580       C  0.66020422  0.62052630  0.86032034     0.35400
C1581       C  0.55180430  0.97578051  0.84157495     0.38800
C1582       C  0.67048837  0.59597892  0.80215256    -0.04700
C1583       C  0.70093540  0.61098339  0.78757551     0.02400
C1584       C  0.73299853  0.61181513  0.79456140    -0.04300
C1585       C  0.73428691  0.59830028  0.81659444    -0.00600
C1586       C  0.70373700  0.58347553  0.83120231    -0.03100
C1587       C  0.63782276  0.59524592  0.79488832     0.36100
C1588       C  0.76745670  0.60086309  0.82460877     0.39700
C1589       C  0.69867947  0.62482246  0.76514226     0.38900
C1590       C  0.70540890  0.57033335  0.85394983     0.35800
C1591       C  0.61707286  0.50838002  0.81621287     0.36500
C1592       C  0.59508249  0.58865679  0.88629910     0.39700
N1593       N  0.69676834  0.63599139  0.74734233    -0.38300
N1594       N  0.61174372  0.59466225  0.78919940    -0.39900
N1595       N  0.79405331  0.60310275  0.83091210    -0.37700
N1596       N  0.70676962  0.56006917  0.87218828    -0.40100
N1597       N  0.68203023  0.65005934  0.86355301    -0.39800
N1598       N  0.59054046  0.60561181  0.89989516    -0.37500
N1599       N  0.53113101  0.94651291  0.83670271    -0.38500
N1600       N  0.62170618  0.99235379  0.80196310    -0.40200
C1601       C  0.91376086  0.61523537  0.83493244    -0.05100
C1602       C  0.91573202  0.58522931  0.82753440     0.09000
C1603       C  0.90232363  0.57008959  0.80562104    -0.02500
C1604       C  0.88710225  0.58487517  0.79103062    -0.00800
C1605       C  0.88550540  0.61539832  0.79817338    -0.04400
C1606       C  0.89863678  0.63032116  0.82028848     0.02600
C1607       C  0.93360832  0.57018412  0.84204831     0.09500
C1608       C  0.90525164  0.53977485  0.79780501     0.35400
C1609       C  0.89575374  0.66055600  0.82819588     0.38800
C1610       C  0.91269536  0.53915444  0.85529861    -0.04700
C1611       C  0.92904913  0.52182162  0.86614057     0.02400
C1612       C  0.96667437  0.53603132  0.86436519    -0.04300
C1613       C  0.98736461  0.56670049  0.85064663    -0.00600
C1614       C  0.97090384  0.58390672  0.83974679    -0.03100
C1615       C  0.87411340  0.52443472  0.85708243     0.36100
C1616       C  0.52523917  0.58006951  0.84673925     0.39700
C1617       C  0.90650931  0.98708412  0.87666354     0.38900
C1618       C  0.99211282  0.61534613  0.82556789     0.35800
C1619       C  0.92775980  0.63076683  0.85747698     0.36500
C1620       C  0.87432291  0.56907976  0.76831309     0.39700
N1621       N  0.88809569  0.95871219  0.88406518    -0.38300
N1622       N  0.84334159  0.01270262  0.85849777    -0.39900
N1623       N  0.55536356  0.59157396  0.84253116    -0.37700
N1624       N  0.50882180  0.64043812  0.81424778    -0.40100
N1625       N  0.90774920  0.51573453  0.79156448    -0.39800
N1626       N  0.86410290  0.55608797  0.75031762    -0.37500
N1627       N  0.89328810  0.68462658  0.83442159    -0.38500
N1628       N  0.93905746  0.64320659  0.87545317    -0.40200
C1629       C  0.90439392  0.82881357  0.69854049    -0.05100
C1630       C  0.92331201  0.83026044  0.67833105     0.09000
C1631       C  0.92625411  0.80041551  0.67189788    -0.02500
C1632       C  0.91044390  0.76917302  0.68568174    -0.00800
C1633       C  0.89136586  0.76752936  0.70602362    -0.04400
C1634       C  0.88830406  0.79767985  0.71225823     0.02600
C1635       C  0.93997111  0.86341142  0.66378065     0.09500
C1636       C  0.94538925  0.80191799  0.65091237     0.35400
C1637       C  0.86929580  0.79741430  0.73309629     0.38800
C1638       C  0.97582623  0.89062183  0.66772536    -0.04700
C1639       C  0.99158704  0.92194719  0.65406899     0.02400
C1640       C  0.97090405  0.92731439  0.63718427    -0.04300
C1641       C  0.93405322  0.90090674  0.63456735    -0.00600
C1642       C  0.91914944  0.86858532  0.64711686    -0.03100
C1643       C  0.99610067  0.88677840  0.68644986     0.36100
C1644       C  0.91008955  0.90874618  0.62155462     0.39700
C1645       C  0.52908127  0.94832443  0.65775660     0.38900
C1646       C  0.88189227  0.84098789  0.64349971     0.35800
C1647       C  0.90177814  0.85970350  0.70532841     0.36500
C1648       C  0.91270454  0.73833850  0.67837946     0.39700
N1649       N  0.55906317  0.96853659  0.66151478    -0.38300
N1650       N  0.51203065  0.88387631  0.70160527    -0.39900
N1651       N  0.88999345  0.91489305  0.61229139    -0.37700
N1652       N  0.85222112  0.81886158  0.64064255    -0.40100
N1653       N  0.96066801  0.80328217  0.63412598    -0.39800
N1654       N  0.91440231  0.71367323  0.67254059    -0.37500
N1655       N  0.85397635  0.79723514  0.74959650    -0.38500
N1656       N  0.89972313  0.88431534  0.71078954    -0.40200
C1657       C  0.62014795  0.58318367  0.66035788    -0.05100
C1658       C  0.64609628  0.57332762  0.65583950     0.09000
C1659       C  0.63891383  0.54672571  0.63923097    -0.02500
C1660       C  0.60527717  0.52897087  0.62781584    -0.00800
C1661       C  0.57837437  0.53775090  0.63297721    -0.04400
C1662       C  0.58642991  0.56547998  0.64908110     0.02600
C1663       C  0.67910129  0.58797330  0.67064613     0.09500
C1664       C  0.66607871  0.53723081  0.63429428     0.35400
C1665       C  0.56075789  0.57679129  0.65406292     0.38800
C1666       C  0.67824068  0.56924998  0.69075980    -0.04700
C1667       C  0.70813546  0.58334246  0.70572617     0.02400
C1668       C  0.73943102  0.61671899  0.70077287    -0.04300
C1669       C  0.74044928  0.63512508  0.68028480    -0.00600
C1670       C  0.71031667  0.62074485  0.66529552    -0.03100
C1671       C  0.64596872  0.53568811  0.69638017     0.36100
C1672       C  0.77268615  0.66843039  0.67431948     0.39700
C1673       C  0.70564514  0.56379585  0.72672990     0.38900
C1674       C  0.71119349  0.63972059  0.64443778     0.35800
C1675       C  0.62820935  0.61152184  0.67689825     0.36500
C1676       C  0.59780539  0.50018475  0.61181000     0.39700
N1677       N  0.70360898  0.54809866  0.74340576    -0.38300
N1678       N  0.62025794  0.00899322  0.70092497    -0.39900
N1679       N  0.79847675  0.69498098  0.66962280    -0.37700
N1680       N  0.71185431  0.65485829  0.62778675    -0.40100
N1681       N  0.68790364  0.52984901  0.63040838    -0.39800
N1682       N  0.59191748  0.47722169  0.59907088    -0.37500
N1683       N  0.54162050  0.58719639  0.65892999    -0.38500
N1684       N  0.63476612  0.63423778  0.69000160    -0.40200
C1685       C  0.95923807  0.58408879  0.64531585    -0.05100
C1686       C  0.93774774  0.56626050  0.66463159     0.09000
C1687       C  0.93184003  0.53225474  0.67070894    -0.02500
C1688       C  0.94673630  0.51567010  0.65727497    -0.00800
C1689       C  0.96787715  0.53306798  0.63746787    -0.04400
C1690       C  0.97413231  0.56767558  0.63173555     0.02600
C1691       C  0.92149590  0.58348554  0.67880276     0.09500
C1692       C  0.91041243  0.51439763  0.69101853     0.35400
C1693       C  0.49790176  0.58782271  0.61283062     0.38800
C1694       C  0.88905732  0.58125976  0.67172197    -0.04700
C1695       C  0.87303546  0.59648566  0.68541153     0.02400
C1696       C  0.88978555  0.61477249  0.70616592    -0.04300
C1697       C  0.92287192  0.61744440  0.71296510    -0.00600
C1698       C  0.93830063  0.60152234  0.69944475    -0.03100
C1699       C  0.87210132  0.56299608  0.65030920     0.36100
C1700       C  0.94068580  0.63526662  0.73436113     0.39700
C1701       C  0.83958403  0.59371516  0.67783699     0.38900
C1702       C  0.97127553  0.60308043  0.70695954     0.35800
C1703       C  0.96679527  0.61991006  0.63982747     0.36500
C1704       C  0.93935889  0.98046522  0.66409677     0.39700
N1705       N  0.81280132  0.59138258  0.67187224    -0.38300
N1706       N  0.85880531  0.54849132  0.63315874    -0.39900
N1707       N  0.95505958  0.64947742  0.75136560    -0.37700
N1708       N  0.99740258  0.60405300  0.71299834    -0.40100
N1709       N  0.89348169  0.00031980  0.70728052    -0.39800
N1710       N  0.93276980  0.95260006  0.67067446    -0.37500
N1711       N  0.51684073  0.60435442  0.59786170    -0.38500
N1712       N  0.97290566  0.64853284  0.63555557    -0.40200
C1713       C  0.52787078  0.52903130  0.52403790    -0.05100
C1714       C  0.00068920  0.50051338  0.51130797     0.09000
C1715       C  0.97123234  0.97271660  0.52308131    -0.02500
C1716       C  0.97051777  0.97176705  0.54755686    -0.00800
C1717       C  0.49961507  0.49883774  0.56074583    -0.04400
C1718       C  0.52572108  0.52966554  0.54834192     0.02600
C1719       C  0.00138872  0.50156550  0.48537302     0.09500
C1720       C  0.94098789  0.94552927  0.50984973     0.35400
C1721       C  0.54857752  0.56357253  0.55987285     0.38800
C1722       C  0.50597001  0.97651485  0.47266041    -0.04700
C1723       C  0.50419969  0.97614120  0.44829734     0.02400
C1724       C  0.00419235  0.50478590  0.43594755    -0.04300
C1725       C  0.99711177  0.52847809  0.44913922    -0.00600
C1726       C  0.99527335  0.52638148  0.47355025    -0.03100
C1727       C  0.51173985  0.95044994  0.48474763     0.36100
C1728       C  0.98881795  0.55355195  0.43829294     0.39700
C1729       C  0.49850223  0.94400910  0.43659052     0.38900
C1730       C  0.98569889  0.54901227  0.48667592     0.35800
C1731       C  0.55802517  0.55817193  0.51199209     0.36500
C1732       C  0.93796682  0.94434214  0.55840697     0.39700
N1733       N  0.49372657  0.91814599  0.42749780    -0.38300
N1734       N  0.51640899  0.92973659  0.49439016    -0.39900
N1735       N  0.98232089  0.57430647  0.43062674    -0.37700
N1736       N  0.97790856  0.56682858  0.49719929    -0.40100
N1737       N  0.91692404  0.92394696  0.49927528    -0.39800
N1738       N  0.91109425  0.92168889  0.56575724    -0.37500
N1739       N  0.56717282  0.59084386  0.56870235    -0.38500
N1740       N  0.58203262  0.58129257  0.50232745    -0.40200
C1741       C  0.98402127  0.96220751  0.02746703    -0.05100
C1742       C  0.49414597  0.99300534  0.01413572     0.09000
C1743       C  0.50073711  0.52470580  0.02513286    -0.02500
C1744       C  0.49753317  0.52572644  0.04934099    -0.00800
C1745       C  0.49403211  0.99703762  0.06333845    -0.04400
C1746       C  0.98415222  0.96410197  0.05186836     0.02600
C1747       C  0.49427204  0.99126047  0.98828438     0.09500
C1748       C  0.50980545  0.55614900  0.01132953     0.35400
C1749       C  0.97208547  0.93134590  0.06488056     0.38800
C1750       C  0.96554265  0.98944881  0.97560702    -0.04700
C1751       C  0.96636740  0.98995910  0.95119891     0.02400
C1752       C  0.49687951  0.99356464  0.93895496    -0.04300
C1753       C  0.52254820  0.48923741  0.95213520    -0.00600
C1754       C  0.52234048  0.49031830  0.97655347    -0.03100
C1755       C  0.93471761  0.98659355  0.98788029     0.36100
C1756       C  0.54706920  0.47995372  0.94123596     0.39700
C1757       C  0.93428315  0.98442050  0.93936746     0.38900
C1758       C  0.55104438  0.49029430  0.98974598     0.35800
C1759       C  0.97251015  0.92830080  0.01594741     0.36500
C1760       C  0.49152193  0.55334214  0.05863731     0.39700
N1761       N  0.90792440  0.98011053  0.93107066    -0.38300
N1762       N  0.91023774  0.98433835  0.99770541    -0.39900
N1763       N  0.56679830  0.47246551  0.93285617    -0.37700
N1764       N  0.57391074  0.49036328  0.00033576    -0.40100
N1765       N  0.51714243  0.58114010  0.00023638    -0.39800
N1766       N  0.48635880  0.57537614  0.06567891    -0.37500
N1767       N  0.96238316  0.90503030  0.07503469    -0.38500
N1768       N  0.96310211  0.90127233  0.00671131    -0.40200
C1769       C  0.60614533  0.90314826  0.33118775    -0.05100
C1770       C  0.58180958  0.91320416  0.32254790     0.09000
C1771       C  0.57098953  0.90658880  0.29911346    -0.02500
C1772       C  0.58450073  0.89016098  0.28441318    -0.00800
C1773       C  0.60963243  0.88116769  0.29288030    -0.04400
C1774       C  0.62062263  0.88785497  0.31623604     0.02600
C1775       C  0.56798081  0.93149859  0.33783829     0.09500
C1776       C  0.54665907  0.91759597  0.29000347     0.35400
C1777       C  0.64736197  0.87964425  0.32471108     0.38800
C1778       C  0.59055428  0.96771968  0.34414687    -0.04700
C1779       C  0.57655055  0.98563472  0.35699248     0.02400
C1780       C  0.53947311  0.96809888  0.36224367    -0.04300
C1781       C  0.51789863  0.93104689  0.35801346    -0.00600
C1782       C  0.53193470  0.91290399  0.34551804    -0.03100
C1783       C  0.62800286  0.98667131  0.33708745     0.36100
C1784       C  0.98186526  0.91118919  0.36758962     0.39700
C1785       C  0.60033296  0.52186902  0.36511103     0.38900
C1786       C  0.50932638  0.87506297  0.34056818     0.35800
C1787       C  0.61636365  0.90870791  0.35541641     0.36500
C1788       C  0.57347526  0.88353426  0.26033757     0.39700
N1789       N  0.61925043  0.55074892  0.37163018    -0.38300
N1790       N  0.65789629  0.50167710  0.33147445    -0.39900
N1791       N  0.95320010  0.89530624  0.37533058    -0.37700
N1792       N  0.99123338  0.84488693  0.33658350    -0.40100
N1793       N  0.52727608  0.92645647  0.28281775    -0.39800
N1794       N  0.56475278  0.87815948  0.24112399    -0.37500
N1795       N  0.66891955  0.87336331  0.33139768    -0.38500
N1796       N  0.62450333  0.91315484  0.37475510    -0.40200
C1797       C  0.86234438  0.94527822  0.36526948    -0.05100
C1798       C  0.85641482  0.92772234  0.34391548     0.09000
C1799       C  0.88506359  0.92702977  0.33269785    -0.02500
C1800       C  0.91954496  0.94310975  0.34303736    -0.00800
C1801       C  0.92620884  0.96153039  0.36456299    -0.04400
C1802       C  0.89715590  0.96354472  0.37499656     0.02600
C1803       C  0.82054496  0.91214858  0.33225321     0.09500
C1804       C  0.87895606  0.90997028  0.31016331     0.35400
C1805       C  0.90266385  0.98600767  0.39502716     0.38800
C1806       C  0.81087892  0.93488961  0.32095399    -0.04700
C1807       C  0.77920293  0.92038401  0.30753341     0.02400
C1808       C  0.75728517  0.88273559  0.30484151    -0.04300
C1809       C  0.76605615  0.86006837  0.31743653    -0.00600
C1810       C  0.79740286  0.87481512  0.33123276    -0.03100
C1811       C  0.83474715  0.97338094  0.32211121     0.36100
C1812       C  0.74340686  0.82148809  0.31594583     0.39700
C1813       C  0.77152826  0.94465665  0.29479901     0.38900
C1814       C  0.80652371  0.85161174  0.34395378     0.35800
C1815       C  0.83232961  0.94462675  0.37720193     0.36500
C1816       C  0.94739584  0.94025859  0.33088067     0.39700
N1817       N  0.76580822  0.96421476  0.28456814    -0.38300
N1818       N  0.85386430  0.50403413  0.32305575    -0.39900
N1819       N  0.72569780  0.79067653  0.31472636    -0.37700
N1820       N  0.81390595  0.83320034  0.35412094    -0.40100
N1821       N  0.87396061  0.89638941  0.29220989    -0.39800
N1822       N  0.96879634  0.93771121  0.32027331    -0.37500
N1823       N  0.90638707  0.00351996  0.41110155    -0.38500
N1824       N  0.80833129  0.94386538  0.38674931    -0.40200
C1825       C  0.52811083  0.62673380  0.34889374    -0.05100
C1826       C  0.55651684  0.63661997  0.33312146     0.09000
C1827       C  0.56860355  0.61255581  0.32827801    -0.02500
C1828       C  0.55288095  0.57907483  0.33946466    -0.00800
C1829       C  0.52715428  0.57066384  0.35724528    -0.04400
C1830       C  0.51328859  0.59379581  0.36075416     0.02600
C1831       C  0.57157009  0.67085383  0.31982325     0.09500
C1832       C  0.59720927  0.62228795  0.31152296     0.35400
C1833       C  0.98103275  0.58198600  0.37438706     0.38800
C1834       C  0.59817326  0.70339199  0.32968125    -0.04700
C1835       C  0.61435418  0.73502613  0.31634513     0.02400
C1836       C  0.60449670  0.73417159  0.29288438    -0.04300
C1837       C  0.57670005  0.70163632  0.28336460    -0.00600
C1838       C  0.56025223  0.67026455  0.29685088    -0.03100
C1839       C  0.60926231  0.70410821  0.35346813     0.36100
C1840       C  0.56568828  0.69966574  0.25940997     0.39700
C1841       C  0.64032655  0.76862534  0.32702265     0.38900
C1842       C  0.53206394  0.63696403  0.28694963     0.35800
C1843       C  0.51363932  0.65019339  0.35247781     0.36500
C1844       C  0.56102866  0.55268349  0.33072897     0.39700
N1845       N  0.66081097  0.79546872  0.33562373    -0.38300
N1846       N  0.61805651  0.70462970  0.37246300    -0.39900
N1847       N  0.55644949  0.69766636  0.24038420    -0.37700
N1848       N  0.50964487  0.61035857  0.27910763    -0.40100
N1849       N  0.62007674  0.63018940  0.29820992    -0.39800
N1850       N  0.56703703  0.53216418  0.32209339    -0.37500
N1851       N  0.95457100  0.57278186  0.38445338    -0.38500
N1852       N  0.50213003  0.66895379  0.35527383    -0.40200
C1853       C  0.55026650  0.93475147  0.16728992    -0.05100
C1854       C  0.58490218  0.94462669  0.15918913     0.09000
C1855       C  0.59944180  0.96836649  0.14042039    -0.02500
C1856       C  0.57900091  0.98133184  0.12930073    -0.00800
C1857       C  0.54349895  0.97067589  0.13689578    -0.04400
C1858       C  0.53018688  0.94858360  0.15684288     0.02600
C1859       C  0.60653786  0.93140386  0.17162054     0.09500
C1860       C  0.63574892  0.97979217  0.13274460     0.35400
C1861       C  0.99681381  0.94088898  0.16781672     0.38800
C1862       C  0.60580972  0.89999630  0.16418024    -0.04700
C1863       C  0.62091868  0.88418100  0.17817882     0.02400
C1864       C  0.63693705  0.89980008  0.19960273    -0.04300
C1865       C  0.63988797  0.93259203  0.20624398    -0.00600
C1866       C  0.62478357  0.94834862  0.19225823    -0.03100
C1867       C  0.58856990  0.88346839  0.14244780     0.36100
C1868       C  0.65632335  0.94896493  0.22822159     0.39700
C1869       C  0.61993614  0.85176803  0.17065365     0.38900
C1870       C  0.62672172  0.98134493  0.19950615     0.35800
C1871       C  0.53515401  0.91005307  0.18656984     0.36500
C1872       C  0.59574242  0.00730514  0.11087858     0.39700
N1873       N  0.61947746  0.82605843  0.16464056    -0.38300
N1874       N  0.57491339  0.87039480  0.12504396    -0.39900
N1875       N  0.66929009  0.96203351  0.24577486    -0.37700
N1876       N  0.62822080  0.50766691  0.20523230    -0.40100
N1877       N  0.66472996  0.98898270  0.12661818    -0.39800
N1878       N  0.60936741  0.02784572  0.09611452    -0.37500
N1879       N  0.97123245  0.93508080  0.17793749    -0.38500
N1880       N  0.52286441  0.89020230  0.20181879    -0.40200
C1881       C  0.83653542  0.91839033  0.20424626    -0.05100
C1882       C  0.83202130  0.90942187  0.18054285     0.09000
C1883       C  0.79742907  0.88491625  0.17189772    -0.02500
C1884       C  0.76731343  0.87023643  0.18678765    -0.00800
C1885       C  0.77162267  0.88032139  0.21035749    -0.04400
C1886       C  0.80649283  0.90392598  0.21909741     0.02600
C1887       C  0.86390037  0.92637590  0.16475947     0.09500
C1888       C  0.79287577  0.87514339  0.14761450     0.35400
C1889       C  0.81199710  0.91223288  0.24356914     0.38800
C1890       C  0.88053459  0.90711930  0.15742830    -0.04700
C1891       C  0.91183369  0.92398012  0.14368317     0.02400
C1892       C  0.92788311  0.96071194  0.13847063    -0.04300
C1893       C  0.90962511  0.97909545  0.14411630    -0.00600
C1894       C  0.87796871  0.96212643  0.15751783    -0.03100
C1895       C  0.86570033  0.87012331  0.16429870     0.36100
C1896       C  0.92295201  0.51515391  0.13562856     0.39700
C1897       C  0.92696871  0.90331304  0.13438557     0.38900
C1898       C  0.85982041  0.98139254  0.16393150     0.35800
C1899       C  0.87231973  0.94232795  0.21337090     0.36500
C1900       C  0.73177097  0.84540797  0.17774226     0.39700
N1901       N  0.93901410  0.88677527  0.12701488    -0.38300
N1902       N  0.85383326  0.84059182  0.16978425    -0.39900
N1903       N  0.93362714  0.54388240  0.12879740    -0.37700
N1904       N  0.84529114  0.99669228  0.16911179    -0.40100
N1905       N  0.78939839  0.86728791  0.12824112    -0.39800
N1906       N  0.70336318  0.82548768  0.17065812    -0.37500
N1907       N  0.81741078  0.91907174  0.26303298    -0.38500
N1908       N  0.90087033  0.96139441  0.22059802    -0.40200
C1909       C  0.58708297  0.63429314  0.14243631    -0.05100
C1910       C  0.57227872  0.63853614  0.16305915     0.09000
C1911       C  0.54145947  0.60897845  0.17248673    -0.02500
C1912       C  0.52393778  0.57590504  0.16059450    -0.00800
C1913       C  0.53779062  0.57159585  0.13920493    -0.04400
C1914       C  0.57080761  0.60092153  0.13099618     0.02600
C1915       C  0.58965244  0.67405040  0.17520535     0.09500
C1916       C  0.52801680  0.61260019  0.19478075     0.35400
C1917       C  0.58947562  0.59709218  0.11129728     0.38800
C1918       C  0.57270631  0.69467334  0.17548135    -0.04700
C1919       C  0.58755542  0.72673185  0.18844684     0.02400
C1920       C  0.62094819  0.73971306  0.20021033    -0.04300
C1921       C  0.63953502  0.72048682  0.19769270    -0.00600
C1922       C  0.62302553  0.68702599  0.18643516    -0.03100
C1923       C  0.53951081  0.68243659  0.16261646     0.36100
C1924       C  0.67611001  0.73509611  0.20614866     0.39700
C1925       C  0.56724371  0.74502598  0.19026713     0.38900
C1926       C  0.63997242  0.66533594  0.18697475     0.35800
C1927       C  0.61943865  0.66450652  0.13300882     0.36500
C1928       C  0.99188263  0.54694198  0.17104934     0.39700
N1929       N  0.55071849  0.75929551  0.19172970    -0.38300
N1930       N  0.51309715  0.67259902  0.15228420    -0.39900
N1931       N  0.70536018  0.74674000  0.21269921    -0.37700
N1932       N  0.65333425  0.64792362  0.18747311    -0.40100
N1933       N  0.51736755  0.61541887  0.21257342    -0.39800
N1934       N  0.96700664  0.52453074  0.18050961    -0.37500
N1935       N  0.60461746  0.59486565  0.09543192    -0.38500
N1936       N  0.64537040  0.68858132  0.12566037    -0.40200
loop_ 
_geom_bond_atom_site_label_1 
_geom_bond_atom_site_label_2 
_geom_bond_distance 
_geom_bond_site_symmetry_2 
_ccdc_geom_bond_type 
O1           C16   1.261       .  A
O1           Al9   1.899       .  S
C2           O12   1.263       .  A
C2            O3   1.267       .  A
C2          C433   1.485       .  S
O3           Al5   1.928       .  S
O4            C6   1.260       .  A
O4           Al5   1.900       .  S
Al5          O13   1.895       .  S
Al5          O15   1.905       .  S
Al5          O14   1.784       .  S
C6           O19   1.261       .  A
C6          C412   1.483       .  S
O7           C17   1.262       .  A
O7           Al9   1.913       .  S
O8           C21   1.265       .  A
O8          Al18   1.902       .  S
Al9          O22   1.922       .  S
Al9          O19   1.910       .  S
Al9          O14   1.784       .  S
O10          C17   1.261       .  A
O10         Al18   1.908       .  S
O11          C20   1.260       .  A
O11         Al18   1.915       .  S
O12         Al18   1.897       .  S
O13          C20   1.256       .  A
O14         Al18   1.785       .  S
O15          C16   1.260       .  A
C16         C321   1.475       .  S
C17         C468   1.506       .  S
C20         C356   1.493       .  S
C21          O22   1.266       .  A
C21         C384   1.491       .  S
C23          C24   1.547   1_655  S
C23         C513   1.549   1_655  S
C23         C995   1.522       .  S
C23         C293   1.553       .  S
C24          H31   1.086       .  S
C24          C25   1.372       .  D
C25          C26   1.542       .  S
C25         C405   1.513       .  S
C26         C514   1.543       .  S
C26         C996   1.552   1_455  S
C26         H516   1.101       .  S
C27         C991   1.522       .  S
C27          H33   1.087       .  S
C27          C28   1.355       .  D
C28         C994   1.552       .  S
C28         C440   1.485       .  S
C29         C507   1.549   1_445  S
C29          H34   1.077       .  S
C29          C30   1.371       .  D
C30         C510   1.543   1_545  S
C30         C461   1.517       .  S
H32         C510   1.101       .  S
C35        C1004   1.553       .  S
C35        C1493   1.532   1_545  S
C35         C523   1.533   1_545  S
C35         C272   1.555       .  S
C36        C1003   1.553       .  S
C36          H43   1.084       .  S
C36          C37   1.373       .  D
C37        C1006   1.537   1_455  S
C37         C377   1.504       .  S
C38        C1005   1.537       .  S
C38        C1494   1.552   1_545  S
C38         C524   1.547   1_545  S
C38          H44   1.103   1_545  S
C39         C519   1.533       .  S
C39          H45   1.085       .  S
C39          C40   1.368       .  D
C40         C522   1.547       .  S
C40         C349   1.517       .  S
C41        C1487   1.532       .  S
C41          H46   1.085       .  S
C41          C42   1.356       .  D
C42        C1490   1.552   1_455  S
C42         C328   1.485       .  S
O47          C62   1.261       .  A
O47         Al55   1.908       .  S
C48          O58   1.261       .  A
C48          O49   1.257       .  A
C48         C216   1.492       .  S
O49         Al51   1.885       .  S
O50          C52   1.262       .  A
O50         Al51   1.910       .  S
Al51         O59   1.915       .  S
Al51         O61   1.881       .  S
Al51         O60   1.798       .  S
C52          O65   1.257       .  A
C52         C244   1.497       .  S
O53          C63   1.263       .  A
O53         Al55   1.916       .  S
O54          C67   1.262       .  A
O54         Al64   1.910       .  S
Al55         O68   1.883       .  S
Al55         O65   1.890       .  S
Al55         O60   1.801       .  S
O56          C63   1.256       .  A
O56         Al64   1.885       .  S
O57          C66   1.256       .  A
O57         Al64   1.892       .  S
O58         Al64   1.906       .  S
O59          C66   1.262       .  A
O60         Al64   1.801       .  S
O61          C62   1.256       .  A
C62         C153   1.485       .  S
C63         C181   1.496       .  S
C66         C132   1.495       .  S
C67          O68   1.256       .  A
C67         C104   1.489       .  S
C69        C1038   1.529       .  S
C69        C1527   1.542       .  S
C69         C557   1.548   1_655  S
C69         C300   1.555       .  S
C70        C1037   1.529       .  S
C70          H77   1.086       .  S
C70          C71   1.366       .  D
C71        C1040   1.546       .  S
C71          C97   1.502       .  S
C72        C1039   1.546   1_455  S
C72        C1528   1.543   1_455  S
C72         C558   1.544       .  S
C72          H78   1.109       .  S
C73         C553   1.548   1_445  S
C73          H79   1.082       .  S
C73          C74   1.368       .  D
C74         C556   1.544   1_545  S
C74         C125   1.505       .  S
C75        C1521   1.542   1_545  S
C75          H80   1.084       .  S
C75          C76   1.365       .  D
C76        C1524   1.543   1_545  S
C76         C160   1.491       .  S
C81        C1534   1.534   1_455  S
C81        C1055   1.548   1_455  S
C81         C569   1.542       .  S
C81         C749   1.558   1_455  S
C82        C1533   1.534   1_545  S
C82          H89   1.086       .  S
C82          C83   1.369       .  D
C83        C1536   1.545   1_545  S
C83         C237   1.506       .  S
C84        C1535   1.545   1_455  S
C84        C1056   1.548   1_455  S
C84         C570   1.543       .  S
C84          H90   1.110       .  S
C85         C565   1.542   1_545  S
C85          H91   1.084       .  S
C85          C86   1.360       .  D
C86         C568   1.543   1_545  S
C86         C209   1.501       .  S
C87        C1049   1.548       .  S
C87          H92   1.083       .  S
C87          C88   1.372       .  D
C88        C1052   1.548       .  S
C88         C188   1.503       .  S
C93          C94   1.408       .  A
C93          C98   1.412       .  A
C93         C111   1.452       .  S
C94          C99   1.494       .  S
C94          C95   1.407       .  A
C95          C96   1.410       .  A
C95         C100   1.452       .  S
C96          C97   1.422       .  A
C96         C112   1.452       .  S
C97          C98   1.418       .  A
C98         C101   1.447       .  S
C99         C102   1.407       .  A
C99         C106   1.411       .  A
C100        N117   1.157       .  T
C101        N119   1.157       .  T
C102        C103   1.406       .  A
C102        C107   1.453       .  S
C103        C104   1.421       .  A
C103        C109   1.453       .  S
C104        C105   1.415       .  A
C105        C106   1.414       .  A
C105        C108   1.450       .  S
C106        C110   1.449       .  S
C107        N114   1.157       .  T
C108        N115   1.157       .  T
C109        N113   1.157       .  T
C110        N116   1.157       .  T
C111        N120   1.157       .  T
C112       N1086   1.157       .  T
N118       C1080   1.157   1_455  T
C121        C122   1.410       .  A
C121        C126   1.413       .  A
C121        C139   1.452       .  S
C122        C127   1.503       .  S
C122        C123   1.409       .  A
C123        C124   1.415       .  A
C123        C128   1.450       .  S
C124        C125   1.421       .  A
C124        C140   1.452       .  S
C125        C126   1.417       .  A
C126        C613   1.448   1_545  S
C127        C130   1.410       .  A
C127        C134   1.412       .  A
C128        N145   1.157       .  T
C129        C610   1.448       .  S
C129        N147   1.157       .  T
C130        C131   1.411       .  A
C130        C135   1.452       .  S
C131        C132   1.420       .  A
C131        C137   1.452       .  S
C132        C133   1.415       .  A
C133        C134   1.416       .  A
C133        C136   1.450       .  S
C134        C138   1.449       .  S
C135        N142   1.157       .  T
C136        N143   1.157       .  T
C137        N141   1.158       .  T
C138        N144   1.157       .  T
C139        N632   1.157   1_545  T
C140        N146   1.157       .  T
N148        C623   1.157       .  T
C149        C150   1.411       .  A
C149        C154   1.413       .  A
C149        C167   1.449       .  S
C150        C155   1.492       .  S
C150        C151   1.408       .  A
C151        C152   1.405       .  A
C151        C156   1.453       .  S
C152        C153   1.420       .  A
C152        C168   1.453       .  S
C153        C154   1.414       .  A
C154        C157   1.450       .  S
C155        C158   1.409       .  A
C155        C162   1.409       .  A
C156        N173   1.157       .  T
C157        N175   1.157       .  T
C158        C159   1.409       .  A
C158        C163   1.451       .  S
C159        C160   1.416       .  A
C159        C649   1.450   1_545  S
C160        C161   1.412       .  A
C161        C162   1.410       .  A
C161       C1132   1.446       .  S
C162        C166   1.452       .  S
C163        N654   1.157       .  T
C164       C1129   1.446   1_455  S
C164        N171   1.156       .  T
C165        C643   1.450       .  S
C165        N169   1.157       .  T
C166       N1140   1.157       .  T
C167        N176   1.157       .  T
C168        N174   1.157       .  T
N170        C647   1.157       .  T
N172       C1134   1.157   1_455  T
C177        C178   1.408       .  A
C177        C182   1.409       .  A
C177        C195   1.452       .  S
C178        C183   1.499       .  S
C178        C179   1.411       .  A
C179        C180   1.415       .  A
C179        C184   1.450       .  S
C180        C181   1.416       .  A
C180        C196   1.450       .  S
C181        C182   1.424       .  A
C182        C185   1.453       .  S
C183        C186   1.408       .  A
C183        C190   1.408       .  A
C184        N201   1.157       .  T
C185        N203   1.158       .  T
C186        C187   1.413       .  A
C186        C191   1.451       .  S
C187        C188   1.417       .  A
C187       C1161   1.446       .  S
C188        C189   1.419       .  A
C189        C190   1.412       .  A
C189        C192   1.448       .  S
C190        C194   1.451       .  S
C191       N1166   1.157       .  T
C192        N199   1.157       .  T
C193       C1155   1.446   1_455  S
C193        N197   1.156       .  T
C194        N200   1.157       .  T
C195        N204   1.157       .  T
C196        N202   1.157       .  T
N198       C1159   1.157   1_455  T
C205        C206   1.407       .  A
C205        C210   1.411       .  A
C205        C223   1.452       .  S
C206        C211   1.496       .  S
C206        C207   1.408       .  A
C207        C208   1.412       .  A
C207        C212   1.451       .  S
C208        C209   1.421       .  A
C208        C224   1.451       .  S
C209        C210   1.416       .  A
C210        C213   1.446       .  S
C211        C214   1.408       .  A
C211        C218   1.411       .  A
C212        N229   1.157       .  T
C213        N231   1.156       .  T
C214        C215   1.407       .  A
C214        C219   1.453       .  S
C215        C216   1.421       .  A
C215        C221   1.453       .  S
C216        C217   1.416       .  A
C217        C218   1.415       .  A
C217        C220   1.451       .  S
C218        C222   1.449       .  S
C219        N710   1.157       .  T
C220        N227   1.158       .  T
C221        N225   1.158       .  T
C222        N228   1.157       .  T
C223        N232   1.157       .  T
C224        N230   1.157   1_545  T
N226        C703   1.157       .  T
C233        C234   1.407       .  A
C233        C238   1.412       .  A
C233        C251   1.451       .  S
C234        C239   1.498       .  S
C234        C235   1.408       .  A
C235        C236   1.413       .  A
C235        C240   1.452       .  S
C236        C237   1.420       .  A
C236        C736   1.447   1_545  S
C237        C238   1.423       .  A
C238       C1209   1.450       .  S
C239        C242   1.410       .  A
C239        C246   1.408       .  A
C240        N741   1.157       .  T
C241       C1206   1.450       .  S
C241        N259   1.157   1_655  T
C242        C243   1.413       .  A
C242        C247   1.450       .  S
C243        C244   1.416       .  A
C243        C249   1.450       .  S
C244        C245   1.424       .  A
C245        C246   1.411       .  A
C245        C248   1.453       .  S
C246        C250   1.452       .  S
C247        N254   1.157       .  T
C248        N255   1.158       .  T
C249        N253   1.157       .  T
C250        N256   1.157       .  T
C251        N260   1.157       .  T
C252        C720   1.447       .  S
C252        N258   1.157       .  T
N257        C724   1.157       .  T
C261        C266   1.409       .  A
C261       C1230   1.404       .  A
C261        C279   1.453       .  S
C262        C267   1.499       .  S
C262       C1229   1.404       .  A
C262        C747   1.407   1_545  A
C263        C264   1.415       .  A
C263        C746   1.407       .  A
C263        C268   1.454       .  S
C264       C1717   1.427       .  A
C264        C280   1.445       .  S
C265        C565   1.558   1_655  S
C265        C266   1.431   1_665  A
C265       C1716   1.427       .  A
C266        C269   1.451       .  S
C267        C274   1.407       .  A
C267       C1722   1.404   1_545  A
C268        N285   1.157       .  T
C269        N287   1.157       .  T
C270        C271   1.409       .  A
C270       C1719   1.404       .  A
C270        C275   1.452       .  S
C271       C1724   1.432       .  A
C271        C277   1.452   1_455  S
C272        C273   1.429       .  A
C272       C1723   1.432   1_545  A
C273        C274   1.413       .  A
C273        C276   1.447       .  S
C274        C278   1.454       .  S
C275        N282   1.157       .  T
C276        N283   1.157       .  T
C277        N281   1.158       .  T
C278        N284   1.157       .  T
C279        N288   1.157       .  T
C280        N286   1.156       .  T
C289        C294   1.412       .  A
C289       C1258   1.407       .  A
C289        C307   1.452       .  S
C290        C295   1.496   1_554  S
C290       C1257   1.407       .  A
C290        C775   1.405   1_655  A
C291        C292   1.409   1_455  A
C291        C774   1.405   1_445  A
C291        C296   1.453       .  S
C292        C777   1.426   1_545  A
C292        C308   1.449       .  S
C293        C776   1.426       .  A
C293       C1262   1.429       .  A
C294       C1261   1.429       .  A
C294        C297   1.452       .  S
C295       C1266   1.404       .  A
C295        C786   1.404   1_655  A
C296        N313   1.157       .  T
C297        N315   1.157       .  T
C298        C299   1.411       .  A
C298       C1263   1.404       .  A
C298        C303   1.454       .  S
C299       C1268   1.430       .  A
C299        C305   1.448       .  S
C300       C1267   1.430       .  A
C300        C785   1.430   1_655  A
C301        C302   1.412       .  A
C301        C784   1.430   1_455  A
C301        C304   1.450       .  S
C302        C779   1.404   1_455  A
C302        C306   1.452       .  S
C303        N310   1.157       .  T
C304        N311   1.158       .  T
C305        N309   1.156       .  T
C306        N312   1.157   1_556  T
C307        N316   1.157       .  T
C308        N314   1.158       .  T
C317        C318   1.413       .  A
C317        C322   1.411       .  A
C317        C335   1.450       .  S
C318        C323   1.497       .  S
C318        C319   1.413       .  A
C319        C320   1.409       .  A
C319        C324   1.451       .  S
C320        C321   1.410       .  A
C320        C336   1.450       .  S
C321        C322   1.410       .  A
C322        C325   1.451       .  S
C323        C326   1.413       .  A
C323        C330   1.411       .  A
C324        N341   1.157       .  T
C325        N343   1.157       .  T
C326        C327   1.411       .  A
C326        C331   1.450       .  S
C327        C328   1.412       .  A
C327        C817   1.451       .  S
C328        C329   1.411       .  A
C329        C330   1.409       .  A
C329       C1300   1.451   1_455  S
C330        C334   1.450       .  S
C331        N822   1.157       .  T
C332       C1297   1.451       .  S
C332        N339   1.157       .  T
C333        C811   1.451   1_545  S
C333        N337   1.157       .  T
C334       N1308   1.157   1_455  T
C335        N344   1.157       .  T
C336        N342   1.157       .  T
N338        C815   1.157   1_545  T
N340       C1302   1.157       .  T
C345        C346   1.403       .  A
C345        C350   1.409       .  A
C345        C363   1.453       .  S
C346        C351   1.496       .  S
C346        C347   1.407       .  A
C347        C348   1.413       .  A
C347        C352   1.453       .  S
C348        C349   1.426       .  A
C348        C364   1.448       .  S
C349        C350   1.431       .  A
C350        C353   1.452       .  S
C351        C354   1.409       .  A
C351        C358   1.408       .  A
C352        N369   1.157       .  T
C353        N371   1.157       .  T
C354        C355   1.409       .  A
C354        C359   1.452       .  S
C355        C356   1.421       .  A
C355        C361   1.452       .  S
C356        C357   1.419       .  A
C357        C358   1.411       .  A
C357        C360   1.451       .  S
C358        C362   1.451       .  S
C359        N850   1.157       .  T
C360        N367   1.157       .  T
C361        N365   1.157       .  T
C362        N368   1.157       .  T
C363        N372   1.157       .  T
C364        N370   1.158       .  T
N366        C843   1.157   1_545  T
C373        C374   1.408       .  A
C373        C378   1.413       .  A
C373        C391   1.450       .  S
C374        C379   1.497       .  S
C374        C375   1.409       .  A
C375        C376   1.411       .  A
C375        C380   1.452       .  S
C376        C377   1.418       .  A
C376        C392   1.446       .  S
C377        C378   1.416       .  A
C378       C1349   1.447   1_455  S
C379        C382   1.410       .  A
C379        C386   1.409       .  A
C380        N397   1.157       .  T
C381       C1346   1.447       .  S
C381        N399   1.156       .  T
C382        C383   1.413       .  A
C382        C387   1.450       .  S
C383        C384   1.415       .  A
C383        C389   1.450       .  S
C384        C385   1.419       .  A
C385        C386   1.409       .  A
C385        C388   1.451       .  S
C386        C390   1.452       .  S
C387        N394   1.157       .  T
C388        N395   1.157       .  T
C389        N393   1.157       .  T
C390        N396   1.157       .  T
C391        N400   1.157       .  T
C392        N398   1.157       .  T
C401        C402   1.408       .  A
C401        C406   1.412       .  A
C401        C419   1.452       .  S
C402        C407   1.500       .  S
C402        C403   1.407       .  A
C403        C404   1.415       .  A
C403        C408   1.451       .  S
C404        C405   1.425       .  A
C404        C420   1.450       .  S
C405        C406   1.422       .  A
C406       C1377   1.447   1_455  S
C407        C410   1.412       .  A
C407        C414   1.411       .  A
C408        N425   1.157       .  T
C409       C1374   1.447       .  S
C409        N427   1.157       .  T
C410        C411   1.413       .  A
C410        C415   1.449       .  S
C411        C412   1.411       .  A
C411        C417   1.450       .  S
C412        C413   1.414       .  A
C413        C414   1.411       .  A
C413        C416   1.451       .  S
C414        C418   1.451       .  S
C415        N422   1.157       .  T
C416        N423   1.157       .  T
C417        N421   1.157       .  T
C418        N908   1.157       .  T
C419        N428   1.157       .  T
C420        N426   1.157       .  T
N424        C902   1.157   1_545  T
C429        C430   1.410       .  A
C429        C434   1.409       .  A
C429        C447   1.452       .  S
C430        C435   1.496       .  S
C430        C431   1.412       .  A
C431        C432   1.413       .  A
C431        C436   1.450       .  S
C432        C433   1.413       .  A
C432        C448   1.451       .  S
C433        C434   1.414       .  A
C434        C437   1.448       .  S
C435        C438   1.411       .  A
C435        C442   1.412       .  A
C436        N453   1.157       .  T
C437        N455   1.156       .  T
C438        C439   1.410       .  A
C438        C443   1.450       .  S
C439        C440   1.411       .  A
C439        C445   1.451       .  S
C440        C441   1.411       .  A
C441        C442   1.410       .  A
C441        C928   1.451       .  S
C442        C446   1.450       .  S
C443        N450   1.157       .  T
C444        C925   1.451   1_545  S
C444        N451   1.157       .  T
C445        N449   1.157       .  T
C446        N452   1.157       .  T
C447        N456   1.157       .  T
C448        N454   1.157       .  T
C457        C458   1.407       .  A
C457        C462   1.411       .  A
C457        C475   1.453       .  S
C458        C463   1.501       .  S
C458        C459   1.408       .  A
C459        C460   1.414       .  A
C459        C464   1.453       .  S
C460        C461   1.425       .  A
C460       C1444   1.448   1_455  S
C461        C462   1.427       .  A
C462        C465   1.451       .  S
C463        C466   1.411       .  A
C463        C470   1.408       .  A
C464        N481   1.157       .  T
C465        N483   1.157       .  T
C466        C467   1.414       .  A
C466        C471   1.452       .  S
C467        C468   1.423       .  A
C467        C473   1.451       .  S
C468        C469   1.424       .  A
C469        C470   1.409       .  A
C469        C472   1.452       .  S
C470        C474   1.452       .  S
C471        N478   1.157       .  T
C472        N479   1.158       .  T
C473        N477   1.158       .  T
C474        N480   1.157       .  T
C475        N484   1.157       .  T
C476       C1428   1.448       .  S
C476        N482   1.157       .  T
O485        C500   1.261       .  A
O485       Al493   1.899       .  S
C486        O496   1.263       .  A
C486        O487   1.267       .  A
C486        C917   1.485       .  S
O487       Al489   1.928       .  S
O488        C490   1.260       .  A
O488       Al489   1.900       .  S
Al489       O497   1.895       .  S
Al489       O499   1.905       .  S
Al489       O498   1.784       .  S
C490        O503   1.261       .  A
C490        C896   1.483       .  S
O491        C501   1.262       .  A
O491       Al493   1.913       .  S
O492        C505   1.265       .  A
O492       Al502   1.902       .  S
Al493       O506   1.922       .  S
Al493       O503   1.910       .  S
Al493       O498   1.784       .  S
O494        C501   1.261       .  A
O494       Al502   1.908       .  S
O495        C504   1.260       .  A
O495       Al502   1.915       .  S
O496       Al502   1.897       .  S
O497        C504   1.256       .  A
O498       Al502   1.785       .  S
O499        C500   1.260       .  A
C500        C805   1.475       .  S
C501        C952   1.506       .  S
C504        C840   1.493       .  S
C505        O506   1.266       .  A
C505        C868   1.491       .  S
C507        C508   1.547   1_655  S
C507       C1479   1.522       .  S
C507        C777   1.553       .  S
C508        H515   1.086       .  S
C508        C509   1.372       .  D
C509        C510   1.542       .  S
C509        C889   1.513       .  S
C510       C1480   1.552   1_455  S
C511       C1475   1.522       .  S
C511        H517   1.087       .  S
C511        C512   1.355       .  D
C512       C1478   1.552       .  S
C512        C924   1.485       .  S
C513        H518   1.077       .  S
C513        C514   1.371       .  D
C514        C945   1.517       .  S
C519       C1488   1.553       .  S
C519       C1009   1.532       .  S
C519        C756   1.555       .  S
C520       C1487   1.553       .  S
C520        H527   1.084       .  S
C520        C521   1.373       .  D
C521       C1490   1.537   1_455  S
C521        C861   1.504       .  S
C522       C1489   1.537       .  S
C522       C1010   1.552       .  S
C522        H528   1.103       .  S
C523        H529   1.085       .  S
C523        C524   1.368       .  D
C524        C833   1.517       .  S
C525       C1003   1.532   1_565  S
C525        H530   1.085       .  S
C525        C526   1.356       .  D
C526       C1006   1.552   1_465  S
C526        C812   1.485       .  S
O531        C546   1.261       .  A
O531       Al539   1.908       .  S
C532        O542   1.261       .  A
C532        O533   1.257       .  A
C532        C700   1.492       .  S
O533       Al535   1.885       .  S
O534        C536   1.262       .  A
O534       Al535   1.910       .  S
Al535       O543   1.915       .  S
Al535       O545   1.881       .  S
Al535       O544   1.798       .  S
C536        O549   1.257       .  A
C536        C728   1.497       .  S
O537        C547   1.263       .  A
O537       Al539   1.916       .  S
O538        C551   1.262       .  A
O538       Al548   1.910       .  S
Al539       O552   1.883       .  S
Al539       O549   1.890       .  S
Al539       O544   1.801       .  S
O540        C547   1.256       .  A
O540       Al548   1.885       .  S
O541        C550   1.256       .  A
O541       Al548   1.892       .  S
O542       Al548   1.906       .  S
O543        C550   1.262       .  A
O544       Al548   1.801       .  S
O545        C546   1.256       .  A
C546        C637   1.485       .  S
C547        C665   1.496       .  S
C550        C616   1.495       .  S
C551        O552   1.256       .  A
C551        C588   1.489       .  S
C553       C1522   1.529       .  S
C553       C1043   1.542   1_565  S
C553        C784   1.555       .  S
C554       C1521   1.529       .  S
C554        H561   1.086       .  S
C554        C555   1.366       .  D
C555       C1524   1.546       .  S
C555        C581   1.502       .  S
C556       C1523   1.546   1_455  S
C556       C1044   1.543   1_465  S
C556        H562   1.109       .  S
C557        H563   1.082       .  S
C557        C558   1.368       .  D
C558        C609   1.505       .  S
C559       C1037   1.542       .  S
C559        H564   1.084       .  S
C559        C560   1.365       .  D
C560       C1040   1.543       .  S
C560        C644   1.491       .  S
C565       C1050   1.534   1_465  S
C565       C1539   1.548   1_455  S
C566       C1049   1.534       .  S
C566        H573   1.086       .  S
C566        C567   1.369       .  D
C567       C1052   1.545       .  S
C567        C721   1.506       .  S
C568       C1051   1.545   1_465  S
C568       C1540   1.548   1_455  S
C568        H574   1.110   1_565  S
C569        H575   1.084       .  S
C569        C570   1.360       .  D
C570        C693   1.501       .  S
C571       C1533   1.548       .  S
C571        H576   1.083       .  S
C571        C572   1.372       .  D
C572       C1536   1.548       .  S
C572        C672   1.503       .  S
C577        C578   1.408       .  A
C577        C582   1.412       .  A
C577        C595   1.452       .  S
C578        C583   1.494       .  S
C578        C579   1.407       .  A
C579        C580   1.410       .  A
C579        C584   1.452       .  S
C580        C581   1.422       .  A
C580        C596   1.452       .  S
C581        C582   1.418       .  A
C582        C585   1.447       .  S
C583        C586   1.407       .  A
C583        C590   1.411       .  A
C584        N601   1.157       .  T
C585        N603   1.157       .  T
C586        C587   1.406       .  A
C586        C591   1.453       .  S
C587        C588   1.421       .  A
C587        C593   1.453       .  S
C588        C589   1.415       .  A
C589        C590   1.414       .  A
C589        C592   1.450       .  S
C590        C594   1.449       .  S
C591        N598   1.157       .  T
C592        N599   1.157       .  T
C593        N597   1.157       .  T
C594        N600   1.157       .  T
C595        N604   1.157       .  T
C596       N1570   1.157       .  T
N602       C1564   1.157   1_455  T
C605        C606   1.410       .  A
C605        C610   1.413       .  A
C605        C623   1.452       .  S
C606        C611   1.503       .  S
C606        C607   1.409       .  A
C607        C608   1.415       .  A
C607        C612   1.450       .  S
C608        C609   1.421       .  A
C608        C624   1.452       .  S
C609        C610   1.417       .  A
C611        C614   1.410       .  A
C611        C618   1.412       .  A
C612        N629   1.157       .  T
C613        N631   1.157       .  T
C614        C615   1.411       .  A
C614        C619   1.452       .  S
C615        C616   1.420       .  A
C615        C621   1.452       .  S
C616        C617   1.415       .  A
C617        C618   1.416       .  A
C617        C620   1.450       .  S
C618        C622   1.449       .  S
C619        N626   1.157       .  T
C620        N627   1.157       .  T
C621        N625   1.158       .  T
C622        N628   1.157       .  T
C624        N630   1.157       .  T
C633        C634   1.411       .  A
C633        C638   1.413       .  A
C633        C651   1.449       .  S
C634        C639   1.492       .  S
C634        C635   1.408       .  A
C635        C636   1.405       .  A
C635        C640   1.453       .  S
C636        C637   1.420       .  A
C636        C652   1.453       .  S
C637        C638   1.414       .  A
C638        C641   1.450       .  S
C639        C642   1.409       .  A
C639        C646   1.409       .  A
C640        N657   1.157       .  T
C641        N659   1.157       .  T
C642        C643   1.409       .  A
C642        C647   1.451       .  S
C643        C644   1.416       .  A
C644        C645   1.412       .  A
C645        C646   1.410       .  A
C645       C1616   1.446       .  S
C646        C650   1.452       .  S
C648       C1613   1.446   1_455  S
C648        N655   1.156       .  T
C649        N653   1.157       .  T
C650       N1624   1.157       .  T
C651        N660   1.157       .  T
C652        N658   1.157       .  T
N656       C1618   1.157   1_455  T
C661        C662   1.408       .  A
C661        C666   1.409       .  A
C661        C679   1.452       .  S
C662        C667   1.499       .  S
C662        C663   1.411       .  A
C663        C664   1.415       .  A
C663        C668   1.450       .  S
C664        C665   1.416       .  A
C664        C680   1.450       .  S
C665        C666   1.424       .  A
C666        C669   1.453       .  S
C667        C670   1.408       .  A
C667        C674   1.408       .  A
C668        N685   1.157       .  T
C669        N687   1.158       .  T
C670        C671   1.413       .  A
C670        C675   1.451       .  S
C671        C672   1.417       .  A
C671       C1645   1.446       .  S
C672        C673   1.419       .  A
C673        C674   1.412       .  A
C673        C676   1.448       .  S
C674        C678   1.451       .  S
C675       N1650   1.157       .  T
C676        N683   1.157       .  T
C677       C1639   1.446   1_455  S
C677        N681   1.156       .  T
C678        N684   1.157       .  T
C679        N688   1.157       .  T
C680        N686   1.157       .  T
N682       C1643   1.157   1_455  T
C689        C690   1.407       .  A
C689        C694   1.411       .  A
C689        C707   1.452       .  S
C690        C695   1.496       .  S
C690        C691   1.408       .  A
C691        C692   1.412       .  A
C691        C696   1.451       .  S
C692        C693   1.421       .  A
C692        C708   1.451       .  S
C693        C694   1.416       .  A
C694        C697   1.446       .  S
C695        C698   1.408       .  A
C695        C702   1.411       .  A
C696        N713   1.157       .  T
C697        N715   1.156       .  T
C698        C699   1.407       .  A
C698        C703   1.453       .  S
C699        C700   1.421       .  A
C699        C705   1.453       .  S
C700        C701   1.416       .  A
C701        C702   1.415       .  A
C701        C704   1.451       .  S
C702        C706   1.449       .  S
C704        N711   1.158       .  T
C705        N709   1.158       .  T
C706        N712   1.157       .  T
C707        N716   1.157       .  T
C708        N714   1.157       .  T
C717        C718   1.407       .  A
C717        C722   1.412       .  A
C717        C735   1.451       .  S
C718        C723   1.498       .  S
C718        C719   1.408       .  A
C719        C720   1.413       .  A
C719        C724   1.452       .  S
C720        C721   1.420       .  A
C721        C722   1.423       .  A
C722       C1693   1.450       .  S
C723        C726   1.410       .  A
C723        C730   1.408       .  A
C725       C1690   1.450       .  S
C725        N743   1.157   1_655  T
C726        C727   1.413       .  A
C726        C731   1.450       .  S
C727        C728   1.416       .  A
C727        C733   1.450       .  S
C728        C729   1.424       .  A
C729        C730   1.411       .  A
C729        C732   1.453       .  S
C730        C734   1.452       .  S
C731        N738   1.157       .  T
C732        N739   1.158       .  T
C733        N737   1.157       .  T
C734        N740   1.157       .  T
C735        N744   1.157       .  T
C736        N742   1.157       .  T
C745       C1714   1.404       .  A
C745        C750   1.409       .  A
C745        C763   1.453       .  S
C746        C751   1.499       .  S
C746       C1713   1.404       .  A
C747        C748   1.415       .  A
C747        C752   1.454       .  S
C748       C1233   1.427       .  A
C748        C764   1.445       .  S
C749       C1232   1.427       .  A
C749        C750   1.431   1_655  A
C750        C753   1.451       .  S
C751       C1238   1.404       .  A
C751        C758   1.407       .  A
C752        N769   1.157       .  T
C753        N771   1.157       .  T
C754       C1235   1.404   1_565  A
C754        C755   1.409       .  A
C754        C759   1.452       .  S
C755       C1240   1.432   1_565  A
C755        C761   1.452   1_455  S
C756       C1239   1.432       .  A
C756        C757   1.429       .  A
C757        C758   1.413       .  A
C757        C760   1.447       .  S
C758        C762   1.454       .  S
C759        N766   1.157       .  T
C760        N767   1.157       .  T
C761        N765   1.158       .  T
C762        N768   1.157       .  T
C763        N772   1.157       .  T
C764        N770   1.156       .  T
C773       C1742   1.407       .  A
C773        C778   1.412       .  A
C773        C791   1.452       .  S
C774        C779   1.496   1_554  S
C774       C1741   1.407       .  A
C775        C776   1.409   1_455  A
C775        C780   1.453       .  S
C776        C792   1.449       .  S
C777       C1746   1.429       .  A
C778       C1745   1.429       .  A
C778        C781   1.452       .  S
C779       C1750   1.404       .  A
C780        N797   1.157       .  T
C781        N799   1.157       .  T
C782       C1747   1.404       .  A
C782        C783   1.411       .  A
C782        C787   1.454       .  S
C783       C1752   1.430       .  A
C783        C789   1.448       .  S
C784       C1751   1.430       .  A
C785        C786   1.412       .  A
C785        C788   1.450       .  S
C786        C790   1.452       .  S
C787        N794   1.157       .  T
C788        N795   1.158       .  T
C789        N793   1.156       .  T
C790        N796   1.157   1_556  T
C791        N800   1.157       .  T
C792        N798   1.158       .  T
C801        C802   1.413       .  A
C801        C806   1.411       .  A
C801        C819   1.450       .  S
C802        C807   1.497       .  S
C802        C803   1.413       .  A
C803        C804   1.409       .  A
C803        C808   1.451       .  S
C804        C805   1.410       .  A
C804        C820   1.450       .  S
C805        C806   1.410       .  A
C806        C809   1.451       .  S
C807        C810   1.413       .  A
C807        C814   1.411       .  A
C808        N825   1.157       .  T
C809        N827   1.157       .  T
C810        C811   1.411       .  A
C810        C815   1.450       .  S
C811        C812   1.412       .  A
C812        C813   1.411       .  A
C813        C814   1.409       .  A
C813       C1784   1.451   1_455  S
C814        C818   1.450       .  S
C816       C1781   1.451       .  S
C816        N823   1.157       .  T
C817        N821   1.157       .  T
C818       N1792   1.157   1_455  T
C819        N828   1.157       .  T
C820        N826   1.157       .  T
N824       C1786   1.157       .  T
C829        C830   1.403       .  A
C829        C834   1.409       .  A
C829        C847   1.453       .  S
C830        C835   1.496       .  S
C830        C831   1.407       .  A
C831        C832   1.413       .  A
C831        C836   1.453       .  S
C832        C833   1.426       .  A
C832        C848   1.448       .  S
C833        C834   1.431       .  A
C834        C837   1.452       .  S
C835        C838   1.409       .  A
C835        C842   1.408       .  A
C836        N853   1.157       .  T
C837        N855   1.157   1_565  T
C838        C839   1.409       .  A
C838        C843   1.452       .  S
C839        C840   1.421       .  A
C839        C845   1.452       .  S
C840        C841   1.419       .  A
C841        C842   1.411       .  A
C841        C844   1.451       .  S
C842        C846   1.451       .  S
C844        N851   1.157       .  T
C845        N849   1.157       .  T
C846        N852   1.157       .  T
C847        N856   1.157       .  T
C848        N854   1.158       .  T
C857        C858   1.408       .  A
C857        C862   1.413       .  A
C857        C875   1.450       .  S
C858        C863   1.497       .  S
C858        C859   1.409       .  A
C859        C860   1.411       .  A
C859        C864   1.452       .  S
C860        C861   1.418       .  A
C860        C876   1.446       .  S
C861        C862   1.416       .  A
C862       C1833   1.447   1_455  S
C863        C866   1.410       .  A
C863        C870   1.409       .  A
C864        N881   1.157       .  T
C865       C1830   1.447       .  S
C865        N883   1.156       .  T
C866        C867   1.413       .  A
C866        C871   1.450       .  S
C867        C868   1.415       .  A
C867        C873   1.450       .  S
C868        C869   1.419       .  A
C869        C870   1.409       .  A
C869        C872   1.451       .  S
C870        C874   1.452       .  S
C871        N878   1.157       .  T
C872        N879   1.157       .  T
C873        N877   1.157       .  T
C874        N880   1.157       .  T
C875        N884   1.157       .  T
C876        N882   1.157       .  T
C885        C886   1.408       .  A
C885        C890   1.412       .  A
C885        C903   1.452       .  S
C886        C891   1.500       .  S
C886        C887   1.407       .  A
C887        C888   1.415       .  A
C887        C892   1.451       .  S
C888        C889   1.425       .  A
C888        C904   1.450   1_565  S
C889        C890   1.422       .  A
C890       C1861   1.447   1_455  S
C891        C894   1.412       .  A
C891        C898   1.411       .  A
C892        N909   1.157       .  T
C893       C1858   1.447       .  S
C893        N911   1.157       .  T
C894        C895   1.413       .  A
C894        C899   1.449       .  S
C895        C896   1.411       .  A
C895        C901   1.450       .  S
C896        C897   1.414       .  A
C897        C898   1.411       .  A
C897        C900   1.451       .  S
C898        C902   1.451       .  S
C899        N906   1.157       .  T
C900        N907   1.157       .  T
C901        N905   1.157       .  T
C903        N912   1.157       .  T
C904        N910   1.157       .  T
C913        C914   1.410       .  A
C913        C918   1.409       .  A
C913        C931   1.452       .  S
C914        C919   1.496       .  S
C914        C915   1.412       .  A
C915        C916   1.413       .  A
C915        C920   1.450       .  S
C916        C917   1.413       .  A
C916        C932   1.451       .  S
C917        C918   1.414       .  A
C918        C921   1.448       .  S
C919        C922   1.411       .  A
C919        C926   1.412       .  A
C920        N937   1.157       .  T
C921        N939   1.156       .  T
C922        C923   1.410       .  A
C922        C927   1.450       .  S
C923        C924   1.411       .  A
C923        C929   1.451       .  S
C924        C925   1.411       .  A
C925        C926   1.410       .  A
C926        C930   1.450       .  S
C927        N934   1.157       .  T
C928        N935   1.157       .  T
C929        N933   1.157       .  T
C930        N936   1.157       .  T
C931        N940   1.157       .  T
C932        N938   1.157       .  T
C941        C942   1.407       .  A
C941        C946   1.411       .  A
C941        C959   1.453       .  S
C942        C947   1.501       .  S
C942        C943   1.408       .  A
C943        C944   1.414       .  A
C943        C948   1.453       .  S
C944        C945   1.425       .  A
C944       C1928   1.448   1_455  S
C945        C946   1.427       .  A
C946        C949   1.451       .  S
C947        C950   1.411       .  A
C947        C954   1.408       .  A
C948        N965   1.157       .  T
C949        N967   1.157       .  T
C950        C951   1.414       .  A
C950        C955   1.452       .  S
C951        C952   1.423       .  A
C951        C957   1.451       .  S
C952        C953   1.424       .  A
C953        C954   1.409       .  A
C953        C956   1.452       .  S
C954        C958   1.452       .  S
C955        N962   1.157       .  T
C956        N963   1.158       .  T
C957        N961   1.158       .  T
C958        N964   1.157       .  T
C959        N968   1.157       .  T
C960       C1912   1.448       .  S
C960        N966   1.157       .  T
O969        C984   1.261       .  A
O969       Al977   1.899       .  S
C970        O980   1.263       .  A
C970        O971   1.267       .  A
C970       C1401   1.485       .  S
O971       Al973   1.928       .  S
O972        C974   1.260       .  A
O972       Al973   1.900       .  S
Al973       O981   1.895       .  S
Al973       O983   1.905       .  S
Al973       O982   1.784       .  S
C974        O987   1.261       .  A
C974       C1380   1.483       .  S
O975        C985   1.262       .  A
O975       Al977   1.913       .  S
O976        C989   1.265       .  A
O976       Al986   1.902       .  S
Al977       O990   1.922       .  S
Al977       O987   1.910       .  S
Al977       O982   1.784       .  S
O978        C985   1.261       .  A
O978       Al986   1.908       .  S
O979        C988   1.260       .  A
O979       Al986   1.915       .  S
O980       Al986   1.897       .  S
O981        C988   1.256       .  A
O982       Al986   1.785       .  S
O983        C984   1.260       .  A
C984       C1289   1.475       .  S
C985       C1436   1.506       .  S
C988       C1324   1.493       .  S
C989        O990   1.266       .  A
C989       C1352   1.491       .  S
C991        C992   1.547       .  S
C991       C1481   1.549       .  S
C991       C1261   1.553       .  S
C992        H999   1.086       .  S
C992        C993   1.372       .  D
C993        C994   1.542       .  S
C993       C1373   1.513       .  S
C994       C1482   1.543       .  S
C994       H1484   1.101       .  S
C995       H1001   1.087       .  S
C995        C996   1.355       .  D
C996       C1408   1.485       .  S
C997       C1475   1.549   1_545  S
C997       H1002   1.077       .  S
C997        C998   1.371       .  D
C998       C1478   1.543   1_545  S
C998       C1429   1.517       .  S
H1000      C1478   1.101       .  S
C1003      C1491   1.533   1_445  S
C1003      C1240   1.555       .  S
C1004      H1011   1.084       .  S
C1004      C1005   1.373       .  D
C1005      C1345   1.504       .  S
C1006      C1492   1.547   1_545  S
C1006      H1012   1.103   1_545  S
C1007      C1487   1.533   1_655  S
C1007      H1013   1.085       .  S
C1007      C1008   1.368       .  D
C1008      C1490   1.547       .  S
C1008      C1317   1.517       .  S
C1009      H1014   1.085       .  S
C1009      C1010   1.356       .  D
C1010      C1296   1.485       .  S
O1015      C1030   1.261       .  A
O1015     Al1023   1.908       .  S
C1016      O1026   1.261       .  A
C1016      O1017   1.257       .  A
C1016      C1184   1.492       .  S
O1017     Al1019   1.885       .  S
O1018      C1020   1.262       .  A
O1018     Al1019   1.910       .  S
Al1019     O1027   1.915       .  S
Al1019     O1029   1.881       .  S
Al1019     O1028   1.798       .  S
C1020      O1033   1.257       .  A
C1020      C1212   1.497       .  S
O1021      C1031   1.263       .  A
O1021     Al1023   1.916       .  S
O1022      C1035   1.262       .  A
O1022     Al1032   1.910       .  S
Al1023     O1036   1.883       .  S
Al1023     O1033   1.890       .  S
Al1023     O1028   1.801       .  S
O1024      C1031   1.256       .  A
O1024     Al1032   1.885       .  S
O1025      C1034   1.256       .  A
O1025     Al1032   1.892       .  S
O1026     Al1032   1.906       .  S
O1027      C1034   1.262       .  A
O1028     Al1032   1.801       .  S
O1029      C1030   1.256       .  A
C1030      C1121   1.485       .  S
C1031      C1149   1.496       .  S
C1034      C1100   1.495       .  S
C1035      O1036   1.256       .  A
C1035      C1072   1.489       .  S
C1037      C1525   1.548       .  S
C1037      C1268   1.555       .  S
C1038      H1045   1.086       .  S
C1038      C1039   1.366       .  D
C1039      C1065   1.502       .  S
C1040      C1526   1.544       .  S
C1040      H1046   1.109       .  S
C1041      C1521   1.548   1_545  S
C1041      H1047   1.082       .  S
C1041      C1042   1.368       .  D
C1042      C1524   1.544   1_545  S
C1042      C1093   1.505       .  S
C1043      H1048   1.084       .  S
C1043      C1044   1.365       .  D
C1044      C1128   1.491       .  S
C1049      C1537   1.542       .  S
C1049      C1717   1.558       .  S
C1050      H1057   1.086       .  S
C1050      C1051   1.369       .  D
C1051      C1205   1.506       .  S
C1052      C1538   1.543       .  S
C1052      H1058   1.110       .  S
C1053      C1533   1.542   1_545  S
C1053      H1059   1.084       .  S
C1053      C1054   1.360       .  D
C1054      C1536   1.543   1_545  S
C1054      C1177   1.501       .  S
C1055      H1060   1.083       .  S
C1055      C1056   1.372       .  D
C1056      C1156   1.503       .  S
C1061      C1062   1.408       .  A
C1061      C1066   1.412       .  A
C1061      C1079   1.452       .  S
C1062      C1067   1.494       .  S
C1062      C1063   1.407       .  A
C1063      C1064   1.410       .  A
C1063      C1068   1.452       .  S
C1064      C1065   1.422       .  A
C1064      C1080   1.452       .  S
C1065      C1066   1.418       .  A
C1066      C1069   1.447       .  S
C1067      C1070   1.407       .  A
C1067      C1074   1.411       .  A
C1068      N1085   1.157       .  T
C1069      N1087   1.157       .  T
C1070      C1071   1.406       .  A
C1070      C1075   1.453       .  S
C1071      C1072   1.421       .  A
C1071      C1077   1.453       .  S
C1072      C1073   1.415       .  A
C1073      C1074   1.414       .  A
C1073      C1076   1.450       .  S
C1074      C1078   1.449       .  S
C1075      N1082   1.157       .  T
C1076      N1083   1.157       .  T
C1077      N1081   1.157       .  T
C1078      N1084   1.157       .  T
C1079      N1088   1.157       .  T
C1089      C1090   1.410       .  A
C1089      C1094   1.413       .  A
C1089      C1107   1.452       .  S
C1090      C1095   1.503       .  S
C1090      C1091   1.409       .  A
C1091      C1092   1.415       .  A
C1091      C1096   1.450       .  S
C1092      C1093   1.421       .  A
C1092      C1108   1.452       .  S
C1093      C1094   1.417       .  A
C1094      C1581   1.448   1_545  S
C1095      C1098   1.410       .  A
C1095      C1102   1.412       .  A
C1096      N1113   1.157       .  T
C1097      C1578   1.448       .  S
C1097      N1115   1.157       .  T
C1098      C1099   1.411       .  A
C1098      C1103   1.452       .  S
C1099      C1100   1.420       .  A
C1099      C1105   1.452       .  S
C1100      C1101   1.415       .  A
C1101      C1102   1.416       .  A
C1101      C1104   1.450       .  S
C1102      C1106   1.449       .  S
C1103      N1110   1.157       .  T
C1104      N1111   1.157       .  T
C1105      N1109   1.158       .  T
C1106      N1112   1.157       .  T
C1107      N1600   1.157   1_545  T
C1108      N1114   1.157       .  T
N1116      C1591   1.157       .  T
C1117      C1118   1.411       .  A
C1117      C1122   1.413       .  A
C1117      C1135   1.449       .  S
C1118      C1123   1.492       .  S
C1118      C1119   1.408       .  A
C1119      C1120   1.405       .  A
C1119      C1124   1.453       .  S
C1120      C1121   1.420       .  A
C1120      C1136   1.453       .  S
C1121      C1122   1.414       .  A
C1122      C1125   1.450       .  S
C1123      C1126   1.409       .  A
C1123      C1130   1.409       .  A
C1124      N1141   1.157       .  T
C1125      N1143   1.157       .  T
C1126      C1127   1.409       .  A
C1126      C1131   1.451       .  S
C1127      C1128   1.416       .  A
C1127      C1617   1.450   1_545  S
C1128      C1129   1.412       .  A
C1129      C1130   1.410       .  A
C1130      C1134   1.452       .  S
C1131      N1622   1.157       .  T
C1132      N1139   1.156       .  T
C1133      C1611   1.450       .  S
C1133      N1137   1.157       .  T
C1135      N1144   1.157       .  T
C1136      N1142   1.157       .  T
N1138      C1615   1.157       .  T
C1145      C1146   1.408       .  A
C1145      C1150   1.409       .  A
C1145      C1163   1.452       .  S
C1146      C1151   1.499       .  S
C1146      C1147   1.411       .  A
C1147      C1148   1.415       .  A
C1147      C1152   1.450       .  S
C1148      C1149   1.416       .  A
C1148      C1164   1.450       .  S
C1149      C1150   1.424       .  A
C1150      C1153   1.453       .  S
C1151      C1154   1.408       .  A
C1151      C1158   1.408       .  A
C1152      N1169   1.157       .  T
C1153      N1171   1.158       .  T
C1154      C1155   1.413       .  A
C1154      C1159   1.451       .  S
C1155      C1156   1.417       .  A
C1156      C1157   1.419       .  A
C1157      C1158   1.412       .  A
C1157      C1160   1.448       .  S
C1158      C1162   1.451       .  S
C1160      N1167   1.157       .  T
C1161      N1165   1.156       .  T
C1162      N1168   1.157       .  T
C1163      N1172   1.157       .  T
C1164      N1170   1.157       .  T
C1173      C1174   1.407       .  A
C1173      C1178   1.411       .  A
C1173      C1191   1.452       .  S
C1174      C1179   1.496       .  S
C1174      C1175   1.408       .  A
C1175      C1176   1.412       .  A
C1175      C1180   1.451       .  S
C1176      C1177   1.421       .  A
C1176      C1192   1.451       .  S
C1177      C1178   1.416       .  A
C1178      C1181   1.446       .  S
C1179      C1182   1.408       .  A
C1179      C1186   1.411       .  A
C1180      N1197   1.157       .  T
C1181      N1199   1.156       .  T
C1182      C1183   1.407       .  A
C1182      C1187   1.453       .  S
C1183      C1184   1.421       .  A
C1183      C1189   1.453       .  S
C1184      C1185   1.416       .  A
C1185      C1186   1.415       .  A
C1185      C1188   1.451       .  S
C1186      C1190   1.449       .  S
C1187      N1678   1.157       .  T
C1188      N1195   1.158       .  T
C1189      N1193   1.158       .  T
C1190      N1196   1.157       .  T
C1191      N1200   1.157       .  T
C1192      N1198   1.157   1_545  T
N1194      C1671   1.157       .  T
C1201      C1202   1.407       .  A
C1201      C1206   1.412       .  A
C1201      C1219   1.451       .  S
C1202      C1207   1.498       .  S
C1202      C1203   1.408       .  A
C1203      C1204   1.413       .  A
C1203      C1208   1.452       .  S
C1204      C1205   1.420       .  A
C1204      C1704   1.447   1_545  S
C1205      C1206   1.423       .  A
C1207      C1210   1.410       .  A
C1207      C1214   1.408       .  A
C1208      N1709   1.157       .  T
C1209      N1227   1.157       .  T
C1210      C1211   1.413       .  A
C1210      C1215   1.450       .  S
C1211      C1212   1.416       .  A
C1211      C1217   1.450       .  S
C1212      C1213   1.424       .  A
C1213      C1214   1.411       .  A
C1213      C1216   1.453       .  S
C1214      C1218   1.452       .  S
C1215      N1222   1.157       .  T
C1216      N1223   1.158       .  T
C1217      N1221   1.157       .  T
C1218      N1224   1.157       .  T
C1219      N1228   1.157       .  T
C1220      C1688   1.447       .  S
C1220      N1226   1.157       .  T
N1225      C1692   1.157       .  T
C1229      C1234   1.409       .  A
C1229      C1247   1.453       .  S
C1230      C1235   1.499       .  S
C1230      C1715   1.407   1_445  A
C1231      C1714   1.407   1_655  A
C1231      C1232   1.415       .  A
C1231      C1236   1.454       .  S
C1232      C1248   1.445       .  S
C1233      C1533   1.558       .  S
C1233      C1234   1.431   1_565  A
C1234      C1237   1.451       .  S
C1235      C1242   1.407   1_455  A
C1236      N1253   1.157       .  T
C1237      N1255   1.157       .  T
C1238      C1239   1.409       .  A
C1238      C1243   1.452       .  S
C1239      C1245   1.452       .  S
C1240      C1241   1.429   1_455  A
C1241      C1242   1.413       .  A
C1241      C1244   1.447       .  S
C1242      C1246   1.454       .  S
C1243      N1250   1.157       .  T
C1244      N1251   1.157       .  T
C1245      N1249   1.158       .  T
C1246      N1252   1.157       .  T
C1247      N1256   1.157       .  T
C1248      N1254   1.156       .  T
C1257      C1262   1.412       .  A
C1257      C1275   1.452       .  S
C1258      C1263   1.496   1_554  S
C1258      C1743   1.405       .  A
C1259      C1742   1.405   1_545  A
C1259      C1260   1.409       .  A
C1259      C1264   1.453       .  S
C1260      C1745   1.426   1_545  A
C1260      C1276   1.449       .  S
C1261      C1744   1.426       .  A
C1262      C1265   1.452       .  S
C1263      C1754   1.404       .  A
C1264      N1281   1.157       .  T
C1265      N1283   1.157       .  T
C1266      C1267   1.411       .  A
C1266      C1271   1.454       .  S
C1267      C1273   1.448       .  S
C1268      C1753   1.430       .  A
C1269      C1752   1.430       .  A
C1269      C1270   1.412       .  A
C1269      C1272   1.450       .  S
C1270      C1747   1.404       .  A
C1270      C1274   1.452       .  S
C1271      N1278   1.157       .  T
C1272      N1279   1.158       .  T
C1273      N1277   1.156       .  T
C1274      N1280   1.157   1_556  T
C1275      N1284   1.157       .  T
C1276      N1282   1.158       .  T
C1285      C1286   1.413       .  A
C1285      C1290   1.411       .  A
C1285      C1303   1.450       .  S
C1286      C1291   1.497       .  S
C1286      C1287   1.413       .  A
C1287      C1288   1.409       .  A
C1287      C1292   1.451       .  S
C1288      C1289   1.410       .  A
C1288      C1304   1.450       .  S
C1289      C1290   1.410       .  A
C1290      C1293   1.451       .  S
C1291      C1294   1.413       .  A
C1291      C1298   1.411       .  A
C1292      N1309   1.157       .  T
C1293      N1311   1.157       .  T
C1294      C1295   1.411       .  A
C1294      C1299   1.450       .  S
C1295      C1296   1.412       .  A
C1295      C1785   1.451       .  S
C1296      C1297   1.411       .  A
C1297      C1298   1.409       .  A
C1298      C1302   1.450       .  S
C1299      N1790   1.157       .  T
C1300      N1307   1.157       .  T
C1301      C1779   1.451   1_545  S
C1301      N1305   1.157       .  T
C1303      N1312   1.157       .  T
C1304      N1310   1.157       .  T
N1306      C1783   1.157   1_545  T
C1313      C1314   1.403       .  A
C1313      C1318   1.409       .  A
C1313      C1331   1.453       .  S
C1314      C1319   1.496       .  S
C1314      C1315   1.407       .  A
C1315      C1316   1.413       .  A
C1315      C1320   1.453       .  S
C1316      C1317   1.426       .  A
C1316      C1332   1.448       .  S
C1317      C1318   1.431       .  A
C1318      C1321   1.452       .  S
C1319      C1322   1.409       .  A
C1319      C1326   1.408       .  A
C1320      N1337   1.157       .  T
C1321      N1339   1.157       .  T
C1322      C1323   1.409       .  A
C1322      C1327   1.452       .  S
C1323      C1324   1.421       .  A
C1323      C1329   1.452       .  S
C1324      C1325   1.419       .  A
C1325      C1326   1.411       .  A
C1325      C1328   1.451       .  S
C1326      C1330   1.451       .  S
C1327      N1818   1.157       .  T
C1328      N1335   1.157       .  T
C1329      N1333   1.157       .  T
C1330      N1336   1.157       .  T
C1331      N1340   1.157       .  T
C1332      N1338   1.158       .  T
N1334      C1811   1.157   1_545  T
C1341      C1342   1.408       .  A
C1341      C1346   1.413       .  A
C1341      C1359   1.451       .  S
C1342      C1347   1.497       .  S
C1342      C1343   1.409       .  A
C1343      C1344   1.411       .  A
C1343      C1348   1.452       .  S
C1344      C1345   1.418       .  A
C1344      C1360   1.446       .  S
C1345      C1346   1.416       .  A
C1347      C1350   1.410       .  A
C1347      C1354   1.409       .  A
C1348      N1365   1.157       .  T
C1349      N1367   1.156       .  T
C1350      C1351   1.413       .  A
C1350      C1355   1.450       .  S
C1351      C1352   1.415       .  A
C1351      C1357   1.450       .  S
C1352      C1353   1.419       .  A
C1353      C1354   1.409       .  A
C1353      C1356   1.451       .  S
C1354      C1358   1.452       .  S
C1355      N1362   1.157       .  T
C1356      N1363   1.157       .  T
C1357      N1361   1.157       .  T
C1358      N1364   1.157       .  T
C1359      N1368   1.157       .  T
C1360      N1366   1.157       .  T
C1369      C1370   1.408       .  A
C1369      C1374   1.412       .  A
C1369      C1387   1.452       .  S
C1370      C1375   1.500       .  S
C1370      C1371   1.407       .  A
C1371      C1372   1.415       .  A
C1371      C1376   1.451       .  S
C1372      C1373   1.425       .  A
C1372      C1388   1.450       .  S
C1373      C1374   1.422       .  A
C1375      C1378   1.412       .  A
C1375      C1382   1.411       .  A
C1376      N1393   1.157       .  T
C1377      N1395   1.157       .  T
C1378      C1379   1.413       .  A
C1378      C1383   1.449       .  S
C1379      C1380   1.411       .  A
C1379      C1385   1.450       .  S
C1380      C1381   1.414       .  A
C1381      C1382   1.411       .  A
C1381      C1384   1.451       .  S
C1382      C1386   1.451       .  S
C1383      N1390   1.157       .  T
C1384      N1391   1.157       .  T
C1385      N1389   1.157       .  T
C1386      N1876   1.157       .  T
C1387      N1396   1.157       .  T
C1388      N1394   1.157       .  T
N1392      C1870   1.157   1_545  T
C1397      C1398   1.410       .  A
C1397      C1402   1.409       .  A
C1397      C1415   1.452       .  S
C1398      C1403   1.496       .  S
C1398      C1399   1.412       .  A
C1399      C1400   1.413       .  A
C1399      C1404   1.450       .  S
C1400      C1401   1.413       .  A
C1400      C1416   1.451       .  S
C1401      C1402   1.414       .  A
C1402      C1405   1.448       .  S
C1403      C1406   1.411       .  A
C1403      C1410   1.412       .  A
C1404      N1421   1.157       .  T
C1405      N1423   1.156       .  T
C1406      C1407   1.410       .  A
C1406      C1411   1.450       .  S
C1407      C1408   1.411       .  A
C1407      C1413   1.451       .  S
C1408      C1409   1.411       .  A
C1409      C1410   1.410       .  A
C1409      C1896   1.451       .  S
C1410      C1414   1.450       .  S
C1411      N1418   1.157       .  T
C1412      C1893   1.451   1_545  S
C1412      N1419   1.157       .  T
C1413      N1417   1.157       .  T
C1414      N1420   1.157       .  T
C1415      N1424   1.157       .  T
C1416      N1422   1.157       .  T
C1425      C1426   1.407       .  A
C1425      C1430   1.411       .  A
C1425      C1443   1.453       .  S
C1426      C1431   1.501       .  S
C1426      C1427   1.408       .  A
C1427      C1428   1.414       .  A
C1427      C1432   1.453       .  S
C1428      C1429   1.425       .  A
C1429      C1430   1.427       .  A
C1430      C1433   1.451       .  S
C1431      C1434   1.411       .  A
C1431      C1438   1.408       .  A
C1432      N1449   1.157       .  T
C1433      N1451   1.157       .  T
C1434      C1435   1.414       .  A
C1434      C1439   1.452       .  S
C1435      C1436   1.423       .  A
C1435      C1441   1.451       .  S
C1436      C1437   1.424       .  A
C1437      C1438   1.409       .  A
C1437      C1440   1.452       .  S
C1438      C1442   1.452       .  S
C1439      N1446   1.157       .  T
C1440      N1447   1.158       .  T
C1441      N1445   1.158       .  T
C1442      N1448   1.157       .  T
C1443      N1452   1.157       .  T
C1444      N1450   1.157       .  T
O1453      C1468   1.261       .  A
O1453     Al1461   1.899       .  S
C1454      O1464   1.263       .  A
C1454      O1455   1.267       .  A
C1454      C1885   1.485       .  S
O1455     Al1457   1.928       .  S
O1456      C1458   1.260       .  A
O1456     Al1457   1.900       .  S
Al1457     O1465   1.895       .  S
Al1457     O1467   1.905       .  S
Al1457     O1466   1.784       .  S
C1458      O1471   1.261       .  A
C1458      C1864   1.483       .  S
O1459      C1469   1.262       .  A
O1459     Al1461   1.913       .  S
O1460      C1473   1.265       .  A
O1460     Al1470   1.902       .  S
Al1461     O1474   1.922       .  S
Al1461     O1471   1.910       .  S
Al1461     O1466   1.784       .  S
O1462      C1469   1.261       .  A
O1462     Al1470   1.908       .  S
O1463      C1472   1.260       .  A
O1463     Al1470   1.915       .  S
O1464     Al1470   1.897       .  S
O1465      C1472   1.256       .  A
O1466     Al1470   1.785       .  S
O1467      C1468   1.260       .  A
C1468      C1773   1.475       .  S
C1469      C1920   1.506       .  S
C1472      C1808   1.493       .  S
C1473      O1474   1.266       .  A
C1473      C1836   1.491       .  S
C1475      C1476   1.547       .  S
C1475      C1745   1.553       .  S
C1476      H1483   1.086       .  S
C1476      C1477   1.372       .  D
C1477      C1478   1.542       .  S
C1477      C1857   1.513       .  S
C1479      H1485   1.087       .  S
C1479      C1480   1.355       .  D
C1480      C1892   1.485       .  S
C1481      H1486   1.077       .  S
C1481      C1482   1.371       .  D
C1482      C1913   1.517       .  S
C1487      C1724   1.555       .  S
C1488      H1495   1.084       .  S
C1488      C1489   1.373       .  D
C1489      C1829   1.504       .  S
C1490      H1496   1.103       .  S
C1491      H1497   1.085       .  S
C1491      C1492   1.368       .  D
C1492      C1801   1.517       .  S
C1493      H1498   1.085       .  S
C1493      C1494   1.356       .  D
C1494      C1780   1.485       .  S
O1499      C1514   1.261       .  A
O1499     Al1507   1.908       .  S
C1500      O1510   1.261       .  A
C1500      O1501   1.257       .  A
C1500      C1668   1.492       .  S
O1501     Al1503   1.885       .  S
O1502      C1504   1.262       .  A
O1502     Al1503   1.910       .  S
Al1503     O1511   1.915       .  S
Al1503     O1513   1.881       .  S
Al1503     O1512   1.798       .  S
C1504      O1517   1.257       .  A
C1504      C1696   1.497       .  S
O1505      C1515   1.263       .  A
O1505     Al1507   1.916       .  S
O1506      C1519   1.262       .  A
O1506     Al1516   1.910       .  S
Al1507     O1520   1.883       .  S
Al1507     O1517   1.890       .  S
Al1507     O1512   1.801       .  S
O1508      C1515   1.256       .  A
O1508     Al1516   1.885       .  S
O1509      C1518   1.256       .  A
O1509     Al1516   1.892       .  S
O1510     Al1516   1.906       .  S
O1511      C1518   1.262       .  A
O1512     Al1516   1.801       .  S
O1513      C1514   1.256       .  A
C1514      C1605   1.485       .  S
C1515      C1633   1.496       .  S
C1518      C1584   1.495       .  S
C1519      O1520   1.256       .  A
C1519      C1556   1.489       .  S
C1521      C1752   1.555       .  S
C1522      H1529   1.086       .  S
C1522      C1523   1.366       .  D
C1523      C1549   1.502       .  S
C1524      H1530   1.109       .  S
C1525      H1531   1.082       .  S
C1525      C1526   1.368       .  D
C1526      C1577   1.505       .  S
C1527      H1532   1.084       .  S
C1527      C1528   1.365       .  D
C1528      C1612   1.491       .  S
C1534      H1541   1.086       .  S
C1534      C1535   1.369       .  D
C1535      C1689   1.506       .  S
C1536      H1542   1.110   1_565  S
C1537      H1543   1.084       .  S
C1537      C1538   1.360       .  D
C1538      C1661   1.501       .  S
C1539      H1544   1.083       .  S
C1539      C1540   1.372       .  D
C1540      C1640   1.503       .  S
C1545      C1546   1.408       .  A
C1545      C1550   1.412       .  A
C1545      C1563   1.452       .  S
C1546      C1551   1.494       .  S
C1546      C1547   1.407       .  A
C1547      C1548   1.410       .  A
C1547      C1552   1.452       .  S
C1548      C1549   1.422       .  A
C1548      C1564   1.452       .  S
C1549      C1550   1.418       .  A
C1550      C1553   1.447       .  S
C1551      C1554   1.407       .  A
C1551      C1558   1.411       .  A
C1552      N1569   1.157       .  T
C1553      N1571   1.157       .  T
C1554      C1555   1.406       .  A
C1554      C1559   1.453       .  S
C1555      C1556   1.421       .  A
C1555      C1561   1.453       .  S
C1556      C1557   1.415       .  A
C1557      C1558   1.414       .  A
C1557      C1560   1.450       .  S
C1558      C1562   1.449       .  S
C1559      N1566   1.157       .  T
C1560      N1567   1.157       .  T
C1561      N1565   1.157       .  T
C1562      N1568   1.157       .  T
C1563      N1572   1.157       .  T
C1573      C1574   1.410       .  A
C1573      C1578   1.413       .  A
C1573      C1591   1.452       .  S
C1574      C1579   1.503       .  S
C1574      C1575   1.409       .  A
C1575      C1576   1.415       .  A
C1575      C1580   1.450       .  S
C1576      C1577   1.421       .  A
C1576      C1592   1.452       .  S
C1577      C1578   1.417       .  A
C1579      C1582   1.410       .  A
C1579      C1586   1.412       .  A
C1580      N1597   1.157       .  T
C1581      N1599   1.157       .  T
C1582      C1583   1.411       .  A
C1582      C1587   1.452       .  S
C1583      C1584   1.420       .  A
C1583      C1589   1.452       .  S
C1584      C1585   1.415       .  A
C1585      C1586   1.416       .  A
C1585      C1588   1.450       .  S
C1586      C1590   1.449       .  S
C1587      N1594   1.157       .  T
C1588      N1595   1.157       .  T
C1589      N1593   1.158       .  T
C1590      N1596   1.157       .  T
C1592      N1598   1.157       .  T
C1601      C1602   1.411       .  A
C1601      C1606   1.413       .  A
C1601      C1619   1.449       .  S
C1602      C1607   1.492       .  S
C1602      C1603   1.408       .  A
C1603      C1604   1.405       .  A
C1603      C1608   1.453       .  S
C1604      C1605   1.420       .  A
C1604      C1620   1.453       .  S
C1605      C1606   1.414       .  A
C1606      C1609   1.450       .  S
C1607      C1610   1.409       .  A
C1607      C1614   1.409       .  A
C1608      N1625   1.157       .  T
C1609      N1627   1.157       .  T
C1610      C1611   1.409       .  A
C1610      C1615   1.451       .  S
C1611      C1612   1.416       .  A
C1612      C1613   1.412       .  A
C1613      C1614   1.410       .  A
C1614      C1618   1.452       .  S
C1616      N1623   1.156       .  T
C1617      N1621   1.157       .  T
C1619      N1628   1.157       .  T
C1620      N1626   1.157       .  T
C1629      C1630   1.408       .  A
C1629      C1634   1.409       .  A
C1629      C1647   1.452       .  S
C1630      C1635   1.499       .  S
C1630      C1631   1.411       .  A
C1631      C1632   1.415       .  A
C1631      C1636   1.450       .  S
C1632      C1633   1.416       .  A
C1632      C1648   1.450       .  S
C1633      C1634   1.424       .  A
C1634      C1637   1.453       .  S
C1635      C1638   1.408       .  A
C1635      C1642   1.408       .  A
C1636      N1653   1.157       .  T
C1637      N1655   1.158       .  T
C1638      C1639   1.413       .  A
C1638      C1643   1.451       .  S
C1639      C1640   1.417       .  A
C1640      C1641   1.419       .  A
C1641      C1642   1.412       .  A
C1641      C1644   1.448       .  S
C1642      C1646   1.451       .  S
C1644      N1651   1.157       .  T
C1645      N1649   1.156       .  T
C1646      N1652   1.157       .  T
C1647      N1656   1.157       .  T
C1648      N1654   1.157       .  T
C1657      C1658   1.407       .  A
C1657      C1662   1.411       .  A
C1657      C1675   1.452       .  S
C1658      C1663   1.496       .  S
C1658      C1659   1.408       .  A
C1659      C1660   1.412       .  A
C1659      C1664   1.451       .  S
C1660      C1661   1.421       .  A
C1660      C1676   1.451       .  S
C1661      C1662   1.416       .  A
C1662      C1665   1.446       .  S
C1663      C1666   1.408       .  A
C1663      C1670   1.411       .  A
C1664      N1681   1.157       .  T
C1665      N1683   1.156       .  T
C1666      C1667   1.407       .  A
C1666      C1671   1.453       .  S
C1667      C1668   1.421       .  A
C1667      C1673   1.453       .  S
C1668      C1669   1.416       .  A
C1669      C1670   1.415       .  A
C1669      C1672   1.451       .  S
C1670      C1674   1.449       .  S
C1672      N1679   1.158       .  T
C1673      N1677   1.158       .  T
C1674      N1680   1.157       .  T
C1675      N1684   1.157       .  T
C1676      N1682   1.157       .  T
C1685      C1686   1.407       .  A
C1685      C1690   1.412       .  A
C1685      C1703   1.451       .  S
C1686      C1691   1.498       .  S
C1686      C1687   1.408       .  A
C1687      C1688   1.413       .  A
C1687      C1692   1.452       .  S
C1688      C1689   1.420       .  A
C1689      C1690   1.423       .  A
C1691      C1694   1.410       .  A
C1691      C1698   1.408       .  A
C1693      N1711   1.157       .  T
C1694      C1695   1.413       .  A
C1694      C1699   1.450       .  S
C1695      C1696   1.416       .  A
C1695      C1701   1.450       .  S
C1696      C1697   1.424       .  A
C1697      C1698   1.411       .  A
C1697      C1700   1.453       .  S
C1698      C1702   1.452       .  S
C1699      N1706   1.157       .  T
C1700      N1707   1.158       .  T
C1701      N1705   1.157       .  T
C1702      N1708   1.157       .  T
C1703      N1712   1.157       .  T
C1704      N1710   1.157       .  T
C1713      C1718   1.409       .  A
C1713      C1731   1.453       .  S
C1714      C1719   1.499       .  S
C1715      C1716   1.415       .  A
C1715      C1720   1.454       .  S
C1716      C1732   1.445       .  S
C1717      C1718   1.431       .  A
C1718      C1721   1.451       .  S
C1719      C1726   1.407   1_455  A
C1720      N1737   1.157       .  T
C1721      N1739   1.157       .  T
C1722      C1723   1.409       .  A
C1722      C1727   1.452       .  S
C1723      C1729   1.452       .  S
C1724      C1725   1.429   1_455  A
C1725      C1726   1.413       .  A
C1725      C1728   1.447       .  S
C1726      C1730   1.454       .  S
C1727      N1734   1.157       .  T
C1728      N1735   1.157       .  T
C1729      N1733   1.158       .  T
C1730      N1736   1.157       .  T
C1731      N1740   1.157       .  T
C1732      N1738   1.156       .  T
C1741      C1746   1.412       .  A
C1741      C1759   1.452       .  S
C1742      C1747   1.496   1_554  S
C1743      C1744   1.409       .  A
C1743      C1748   1.453       .  S
C1744      C1760   1.449       .  S
C1746      C1749   1.452       .  S
C1748      N1765   1.157       .  T
C1749      N1767   1.157       .  T
C1750      C1751   1.411       .  A
C1750      C1755   1.454       .  S
C1751      C1757   1.448       .  S
C1753      C1754   1.412       .  A
C1753      C1756   1.450       .  S
C1754      C1758   1.452       .  S
C1755      N1762   1.157       .  T
C1756      N1763   1.158       .  T
C1757      N1761   1.156       .  T
C1758      N1764   1.157   1_556  T
C1759      N1768   1.157       .  T
C1760      N1766   1.158       .  T
C1769      C1770   1.413       .  A
C1769      C1774   1.411       .  A
C1769      C1787   1.450       .  S
C1770      C1775   1.497       .  S
C1770      C1771   1.413       .  A
C1771      C1772   1.409       .  A
C1771      C1776   1.451       .  S
C1772      C1773   1.410       .  A
C1772      C1788   1.450       .  S
C1773      C1774   1.410       .  A
C1774      C1777   1.451       .  S
C1775      C1778   1.413       .  A
C1775      C1782   1.411       .  A
C1776      N1793   1.157       .  T
C1777      N1795   1.157       .  T
C1778      C1779   1.411       .  A
C1778      C1783   1.450       .  S
C1779      C1780   1.412       .  A
C1780      C1781   1.411       .  A
C1781      C1782   1.409       .  A
C1782      C1786   1.450       .  S
C1784      N1791   1.157       .  T
C1785      N1789   1.157       .  T
C1787      N1796   1.157       .  T
C1788      N1794   1.157       .  T
C1797      C1798   1.403       .  A
C1797      C1802   1.409       .  A
C1797      C1815   1.453       .  S
C1798      C1803   1.496       .  S
C1798      C1799   1.407       .  A
C1799      C1800   1.413       .  A
C1799      C1804   1.453       .  S
C1800      C1801   1.426       .  A
C1800      C1816   1.448       .  S
C1801      C1802   1.431       .  A
C1802      C1805   1.452       .  S
C1803      C1806   1.409       .  A
C1803      C1810   1.408       .  A
C1804      N1821   1.157       .  T
C1805      N1823   1.157   1_565  T
C1806      C1807   1.409       .  A
C1806      C1811   1.452       .  S
C1807      C1808   1.421       .  A
C1807      C1813   1.452       .  S
C1808      C1809   1.419       .  A
C1809      C1810   1.411       .  A
C1809      C1812   1.451       .  S
C1810      C1814   1.451       .  S
C1812      N1819   1.157       .  T
C1813      N1817   1.157       .  T
C1814      N1820   1.157       .  T
C1815      N1824   1.157       .  T
C1816      N1822   1.158       .  T
C1825      C1826   1.408       .  A
C1825      C1830   1.413       .  A
C1825      C1843   1.451       .  S
C1826      C1831   1.497       .  S
C1826      C1827   1.409       .  A
C1827      C1828   1.411       .  A
C1827      C1832   1.452       .  S
C1828      C1829   1.418       .  A
C1828      C1844   1.446       .  S
C1829      C1830   1.416       .  A
C1831      C1834   1.410       .  A
C1831      C1838   1.409       .  A
C1832      N1849   1.157       .  T
C1833      N1851   1.156       .  T
C1834      C1835   1.413       .  A
C1834      C1839   1.450       .  S
C1835      C1836   1.415       .  A
C1835      C1841   1.450       .  S
C1836      C1837   1.419       .  A
C1837      C1838   1.409       .  A
C1837      C1840   1.451       .  S
C1838      C1842   1.452       .  S
C1839      N1846   1.157       .  T
C1840      N1847   1.157       .  T
C1841      N1845   1.157       .  T
C1842      N1848   1.157       .  T
C1843      N1852   1.157       .  T
C1844      N1850   1.157       .  T
C1853      C1854   1.408       .  A
C1853      C1858   1.412       .  A
C1853      C1871   1.452       .  S
C1854      C1859   1.500       .  S
C1854      C1855   1.407       .  A
C1855      C1856   1.415       .  A
C1855      C1860   1.451       .  S
C1856      C1857   1.425       .  A
C1856      C1872   1.450   1_565  S
C1857      C1858   1.422       .  A
C1859      C1862   1.412       .  A
C1859      C1866   1.411       .  A
C1860      N1877   1.157       .  T
C1861      N1879   1.157       .  T
C1862      C1863   1.413       .  A
C1862      C1867   1.449       .  S
C1863      C1864   1.411       .  A
C1863      C1869   1.450       .  S
C1864      C1865   1.414       .  A
C1865      C1866   1.411       .  A
C1865      C1868   1.451       .  S
C1866      C1870   1.451       .  S
C1867      N1874   1.157       .  T
C1868      N1875   1.157       .  T
C1869      N1873   1.157       .  T
C1871      N1880   1.157       .  T
C1872      N1878   1.157       .  T
C1881      C1882   1.410       .  A
C1881      C1886   1.409       .  A
C1881      C1899   1.452       .  S
C1882      C1887   1.496       .  S
C1882      C1883   1.412       .  A
C1883      C1884   1.413       .  A
C1883      C1888   1.450       .  S
C1884      C1885   1.413       .  A
C1884      C1900   1.451       .  S
C1885      C1886   1.414       .  A
C1886      C1889   1.448       .  S
C1887      C1890   1.411       .  A
C1887      C1894   1.412       .  A
C1888      N1905   1.157       .  T
C1889      N1907   1.156       .  T
C1890      C1891   1.410       .  A
C1890      C1895   1.450       .  S
C1891      C1892   1.411       .  A
C1891      C1897   1.451       .  S
C1892      C1893   1.411       .  A
C1893      C1894   1.410       .  A
C1894      C1898   1.450       .  S
C1895      N1902   1.157       .  T
C1896      N1903   1.157       .  T
C1897      N1901   1.157       .  T
C1898      N1904   1.157       .  T
C1899      N1908   1.157       .  T
C1900      N1906   1.157       .  T
C1909      C1910   1.407       .  A
C1909      C1914   1.411       .  A
C1909      C1927   1.453       .  S
C1910      C1915   1.501       .  S
C1910      C1911   1.408       .  A
C1911      C1912   1.414       .  A
C1911      C1916   1.453       .  S
C1912      C1913   1.425       .  A
C1913      C1914   1.427       .  A
C1914      C1917   1.451       .  S
C1915      C1918   1.411       .  A
C1915      C1922   1.408       .  A
C1916      N1933   1.157       .  T
C1917      N1935   1.157       .  T
C1918      C1919   1.414       .  A
C1918      C1923   1.452       .  S
C1919      C1920   1.423       .  A
C1919      C1925   1.451       .  S
C1920      C1921   1.424       .  A
C1921      C1922   1.409       .  A
C1921      C1924   1.452       .  S
C1922      C1926   1.452       .  S
C1923      N1930   1.157       .  T
C1924      N1931   1.158       .  T
C1925      N1929   1.158       .  T
C1926      N1932   1.157       .  T
C1927      N1936   1.157       .  T
C1928      N1934   1.157       .  T
