geometry optimzed in LAMMPS
_audit_creation_date              2020-11-30 
_audit_creation_method            'lammps2cif' 
_symmetry_space_group_name_H-M    'P1' 
_symmetry_Int_Tables_number       1 
_symmetry_cell_setting            triclinic 
loop_ 
_symmetry_equiv_pos_as_xyz 
  x,y,z 
_cell_length_a                    42.4845611145135 
_cell_length_b                    42.72060273156142 
_cell_length_c                    42.63258697211391 
_cell_angle_alpha                 86.91961367203173 
_cell_angle_beta                  89.05517099419265 
_cell_angle_gamma                 90.97204478090167 
loop_ 
_atom_site_label 
_atom_site_type_symbol 
_atom_site_fract_x 
_atom_site_fract_y 
_atom_site_fract_z 
_atom_site_charge 
N1          N  0.51255034  0.33812453  0.53193348    -0.07370
N2          N  0.52237339  0.34424870  0.55965474    -0.59490
N3          N  0.47045597  0.34482781  0.46667768    -0.07050
N4          N  0.44981599  0.35700036  0.44683735    -0.61620
N5          N  0.45590654  0.32837525  0.48922434    -0.06650
N6          N  0.42567206  0.32736280  0.48481289    -0.59470
N7          N  0.52866033  0.35378843  0.50979213    -0.06330
N8          N  0.54992915  0.37205224  0.52252379    -0.61970
C9          C  0.54563574  0.36507309  0.55391813     0.94800
C10         C  0.42180084  0.34571232  0.45881770     0.94580
N11         N  0.52263293  0.29070633  0.41324471    -0.07560
N12         N  0.51107696  0.28171987  0.38697788    -0.60070
N13         N  0.56981668  0.33045383  0.45630787    -0.05680
N14         N  0.59263463  0.34960229  0.46318783    -0.61320
N15         N  0.58070549  0.30253258  0.45174283    -0.07590
N16         N  0.61135496  0.30206848  0.45580057    -0.60340
N17         N  0.51246569  0.31862334  0.41902098    -0.05320
N18         N  0.49373835  0.32899972  0.39693217    -0.61410
Mn19       Mn  0.52074551  0.33927033  0.46216233     1.18440
C20         C  0.49317864  0.30559706  0.37700389     0.96880
C21         C  0.61832095  0.33178003  0.46252929     0.97550
N22         N  0.44206774  0.26941654  0.52371858    -0.07610
N23         N  0.41271600  0.27513807  0.53106634    -0.63920
N24         N  0.50499308  0.24713962  0.56066659    -0.06410
N25         N  0.50890101  0.23488495  0.58997325    -0.64590
N26         N  0.49870740  0.27690121  0.56260235    -0.07120
N27         N  0.49867839  0.28582939  0.59140005    -0.64180
N28         N  0.44636209  0.24062160  0.51568091    -0.06010
N29         N  0.41791052  0.22603295  0.51710592    -0.64870
Mn30       Mn  0.47773599  0.30371695  0.52648191     1.10660
C31         C  0.39716626  0.24839901  0.52721396     0.98110
C32         C  0.50506605  0.26000774  0.60871172     0.98180
N33         N  0.57223980  0.23632670  0.48078481    -0.07120
N34         N  0.60281692  0.23877773  0.48263925    -0.62500
N35         N  0.49488034  0.22046606  0.45442327    -0.06440
N36         N  0.47194862  0.22056601  0.43252543    -0.59230
N37         N  0.52167201  0.22237805  0.43875052    -0.07750
N38         N  0.51806986  0.21959410  0.40865240    -0.62060
N39         N  0.55826314  0.22723749  0.50761502    -0.06740
N40         N  0.58150937  0.22474588  0.52901430    -0.59250
Mn41       Mn  0.54990018  0.26259332  0.44578579     1.20190
Mn42       Mn  0.50074549  0.23013084  0.50973266     1.10090
Cl43       Cl  0.51283718  0.28341509  0.48637027    -0.87220
C44         C  0.60959028  0.23144010  0.51238431     0.95110
C45         C  0.48733055  0.21940650  0.40335719     0.94910
N46         N  0.51919549  0.45196189  0.32399487    -0.07370
N47         N  0.50460755  0.42726055  0.33767443    -0.59490
N48         N  0.58220092  0.49231026  0.30286564    -0.07050
N49         N  0.60901959  0.48014630  0.31205570    -0.61620
N50         N  0.56809637  0.50475117  0.32692630    -0.06650
N51         N  0.58588512  0.50284782  0.35176182    -0.59470
N52         N  0.53423904  0.44380561  0.29883331    -0.06330
N53         N  0.53105336  0.41419406  0.29460050    -0.61970
C54         C  0.51275207  0.40436856  0.31849012     0.94800
C55         C  0.61111189  0.48724127  0.34235935     0.94580
N56         N  0.56240899  0.52595036  0.21829316    -0.07560
N57         N  0.58519369  0.54864806  0.21603934    -0.60070
N58         N  0.52831595  0.45201718  0.23022575    -0.05680
N59         N  0.52605530  0.42135145  0.23243043    -0.61320
N60         N  0.50317382  0.46524033  0.21831564    -0.07590
N61         N  0.48216330  0.44136945  0.21429492    -0.60340
N62         N  0.57650304  0.50058778  0.22886220    -0.05320
N63         N  0.60703052  0.50380522  0.23061182    -0.61410
Mn64       Mn  0.55538549  0.47309843  0.26478634     1.18440
C65         C  0.61344137  0.53377703  0.22318336     0.96880
C66         C  0.49746817  0.41348310  0.22305334     0.97550
N67         N  0.51621218  0.55149250  0.33994936    -0.07610
N68         N  0.53320361  0.57000243  0.35710213    -0.63920
N69         N  0.44923823  0.51537579  0.32099459    -0.06410
N70         N  0.42120673  0.50283649  0.31764008    -0.64590
N71         N  0.46706139  0.49647660  0.33774834    -0.07120
N72         N  0.45145503  0.47031057  0.34585174    -0.64180
N73         N  0.49813553  0.56823950  0.32145135    -0.06010
N74         N  0.50214478  0.59819249  0.32487793    -0.64870
Mn75       Mn  0.51773601  0.50122876  0.33384809     1.10660
C76         C  0.52376770  0.59899988  0.34715004     0.98110
C77         C  0.42305575  0.47470065  0.33287765     0.98180
N78         N  0.44851846  0.52498210  0.22542980    -0.07120
N79         N  0.42251391  0.52712507  0.20755038    -0.62500
N80         N  0.48902121  0.58228762  0.25362751    -0.06440
N81         N  0.49041797  0.61223364  0.25827927    -0.59230
N82         N  0.50441729  0.57529786  0.22800009    -0.07750
N83         N  0.51726888  0.60170342  0.21467295    -0.62060
N84         N  0.43968512  0.53165939  0.25393922    -0.06740
N85         N  0.40964250  0.53723805  0.25656635    -0.59250
Mn86       Mn  0.50470252  0.52269898  0.21896381     1.20190
Mn87       Mn  0.46909034  0.54928287  0.28771399     1.10090
Cl88       Cl  0.51171685  0.51189307  0.27589960    -0.87220
C89         C  0.39824769  0.53454209  0.22809264     0.95110
C90         C  0.50790924  0.62442575  0.23431883     0.94910
N91         N  0.45735167  0.71556705  0.51833762    -0.07370
N92         N  0.43168313  0.70576322  0.50472622    -0.59490
N93         N  0.51662449  0.71897606  0.56957468    -0.07050
N94         N  0.53474483  0.71546949  0.59419935    -0.61620
N95         N  0.49394514  0.73793916  0.57540648    -0.06650
N96         N  0.49687671  0.74851212  0.60322428    -0.59470
N97         N  0.48081542  0.69727915  0.51210314    -0.06330
N98         N  0.47155315  0.67484497  0.49423386    -0.61970
C99         C  0.44066455  0.68007093  0.48988518     0.94800
C100        C  0.52138818  0.73383668  0.61550139     0.94580
N101        N  0.58950663  0.74945734  0.51363704    -0.07560
N102        N  0.61971456  0.74403186  0.51638239    -0.60070
N103        N  0.54246220  0.70582363  0.47394772    -0.05680
N104        N  0.53904105  0.68117029  0.45712561    -0.61320
N105        N  0.55507909  0.72922308  0.45675282    -0.07590
N106        N  0.56044005  0.72138722  0.42780124    -0.60340
N107        N  0.57417636  0.72903345  0.53257730    -0.05320
N108        N  0.59344030  0.71217874  0.54985654    -0.61410
Mn109      Mn  0.52859730  0.71097896  0.52232787     1.18440
C110        C  0.62210187  0.72090725  0.53887645     0.96880
C111        C  0.55089165  0.69132326  0.42872129     0.97550
N112        N  0.47262454  0.80276459  0.56581630    -0.07610
N113        N  0.46987094  0.80137611  0.59660485    -0.63920
N114        N  0.45051032  0.80968718  0.49370850    -0.06410
N115        N  0.42683147  0.82222882  0.47691386    -0.64590
N116        N  0.43905546  0.78439975  0.50894800    -0.07120
N117        N  0.40907053  0.77934625  0.50432164    -0.64180
N118        N  0.49721595  0.81981575  0.55623069    -0.06010
N119        N  0.51347307  0.82720510  0.58188120    -0.64870
Mn120      Mn  0.46484582  0.75944030  0.54192239     1.10660
C121        C  0.49561961  0.81544907  0.60757559     0.98110
C122        C  0.40107587  0.80266644  0.48425889     0.98180
N123        N  0.53746033  0.79501083  0.43957279    -0.07120
N124        N  0.53890303  0.78802838  0.41020214    -0.62500
N125        N  0.56142514  0.82314355  0.50909702    -0.06440
N126        N  0.58459323  0.81430570  0.52899852    -0.59230
N127        N  0.57454931  0.82447742  0.48149472    -0.07750
N128        N  0.60509988  0.82800998  0.48241599    -0.62060
N129        N  0.51299373  0.81183771  0.44659071    -0.06740
N130        N  0.49622755  0.81580966  0.42020551    -0.59250
Mn131      Mn  0.56498442  0.77433518  0.47362258     1.20190
Mn132      Mn  0.50551657  0.81970494  0.50137917     1.10090
Cl133      Cl  0.51505462  0.76604477  0.50882378    -0.87220
C134        C  0.51353907  0.80104442  0.39766693     0.95110
C135        C  0.61248175  0.81742838  0.51107383     0.94910
N136        N  0.67899460  0.50764259  0.46148226    -0.07370
N137        N  0.68042766  0.49273659  0.43550692    -0.59490
N138        N  0.65829276  0.55212259  0.51915859    -0.07050
N139        N  0.64548306  0.57297652  0.53670988    -0.61620
N140        N  0.67775479  0.56627079  0.49876038    -0.06650
N141        N  0.67883419  0.59647686  0.50182557    -0.59470
N142        N  0.66053093  0.49228958  0.48205971    -0.06330
N143        N  0.64882994  0.46668910  0.47052285    -0.61970
C144        C  0.66175572  0.46722994  0.44151257     0.94800
C145        C  0.65924595  0.60008411  0.52596363     0.94580
N146        N  0.69084491  0.50734048  0.59358579    -0.07560
N147        N  0.69194298  0.52726077  0.61616330    -0.60070
N148        N  0.66980132  0.45414269  0.54309706    -0.05680
N149        N  0.65651862  0.43015178  0.53049123    -0.61320
N150        N  0.69505187  0.44571854  0.55837109    -0.07590
N151        N  0.69988270  0.41555924  0.55614740    -0.60340
N152        N  0.66475153  0.51120819  0.57815067    -0.05320
N153        N  0.64730804  0.53239790  0.59022391    -0.61410
Mn154      Mn  0.66191949  0.50217445  0.53040767     1.18440
C155        C  0.66435461  0.54267859  0.61356552     0.96880
C156        C  0.67548178  0.40647390  0.53897603     0.97550
N157        N  0.74682577  0.57919476  0.48771532    -0.07610
N158        N  0.74241582  0.60960347  0.48563983    -0.63920
N159        N  0.77476584  0.51439633  0.45745459    -0.06410
N160        N  0.79193939  0.50997939  0.43102196    -0.64590
N161        N  0.74629788  0.52131619  0.44819198    -0.07120
N162        N  0.74290696  0.52082932  0.41783697    -0.64180
N163        N  0.77254133  0.57254513  0.50330671    -0.06010
N164        N  0.78579592  0.59923287  0.51247322    -0.64870
Mn165      Mn  0.71218142  0.54374797  0.47378784     1.10660
C166        C  0.76663749  0.62249437  0.50068467     0.98110
C167        C  0.77090684  0.51386257  0.40637023     0.98180
N168        N  0.76555238  0.45543066  0.54994858    -0.07120
N169        N  0.76540476  0.42483621  0.55339000    -0.62500
N170        N  0.78298178  0.52934291  0.56765184    -0.06440
N171        N  0.79855549  0.54928398  0.58566604    -0.59230
N172        N  0.76224120  0.51379676  0.58608835    -0.07750
N173        N  0.76309865  0.52187735  0.61522021    -0.62060
N174        N  0.78216093  0.46580694  0.52489461    -0.06740
N175        N  0.79251007  0.44065594  0.51028231    -0.59250
Mn176      Mn  0.72887585  0.48039871  0.57294629     1.20190
Mn177      Mn  0.78132868  0.52019895  0.51293688     1.10090
Cl178      Cl  0.72196027  0.51130852  0.52243400    -0.87220
C179        C  0.78198018  0.41511291  0.52908551     0.95110
C180        C  0.78540662  0.54402255  0.61549449     0.94910
N181        N  0.55227720  0.47016844  0.68794817    -0.07370
N182        N  0.55475455  0.44019067  0.68208759    -0.59490
N183        N  0.57031789  0.54686717  0.66942385    -0.07050
N184        N  0.57878612  0.57537467  0.65964413    -0.61620
N185        N  0.58893508  0.53586252  0.69138444    -0.06650
N186        N  0.61101422  0.55737663  0.69639343    -0.59470
N187        N  0.53512730  0.48449801  0.66699568    -0.06330
N188        N  0.52497485  0.46537425  0.64667392    -0.61970
C189        C  0.53681119  0.43772367  0.65626965     0.94800
C190        C  0.60397585  0.58221330  0.67649237     0.94580
N191        N  0.49223927  0.58937297  0.68834888    -0.07560
N192        N  0.49271747  0.61968115  0.68806638    -0.60070
N193        N  0.47597053  0.51678943  0.66978925    -0.05680
N194        N  0.46364487  0.49939387  0.64906233    -0.61320
N195        N  0.45454032  0.52971454  0.68696319    -0.07590
N196        N  0.42627683  0.52276888  0.67646897    -0.60340
N197        N  0.51025234  0.57928680  0.66618894    -0.05320
N198        N  0.52346680  0.60278004  0.64944028    -0.61410
Mn199      Mn  0.52307072  0.53162507  0.66714144     1.18440
C200        C  0.51256309  0.62730053  0.66426746     0.96880
C201        C  0.43292200  0.50373084  0.65273675     0.97550
N202        N  0.58771676  0.52391689  0.75931267    -0.07610
N203        N  0.61760204  0.52981678  0.75640861    -0.63920
N204        N  0.52649892  0.47334497  0.78048688    -0.06410
N205        N  0.50927853  0.44787566  0.79019161    -0.64590
N206        N  0.54737803  0.46473985  0.75937963    -0.07120
N207        N  0.54539609  0.43440911  0.75527714    -0.64180
N208        N  0.57465609  0.53616642  0.78370763    -0.06010
N209        N  0.59838043  0.55032353  0.79896621    -0.64870
Mn210      Mn  0.56980963  0.49779645  0.72483990     1.10660
C211        C  0.62539279  0.54560618  0.78080088     0.98110
C212        C  0.52199903  0.42351008  0.77462841     0.98180
N213        N  0.45021799  0.53149048  0.75747616    -0.07120
N214        N  0.42069788  0.52382419  0.75450462    -0.62500
N215        N  0.50987106  0.58225615  0.78042376    -0.06440
N216        N  0.52293507  0.60846201  0.79152044    -0.59230
N217        N  0.48947946  0.59116304  0.75883060    -0.07750
N218        N  0.48772636  0.62193407  0.75581455    -0.62060
N219        N  0.46350731  0.51737939  0.78180695    -0.06740
N220        N  0.44102035  0.49898840  0.79647184    -0.59250
Mn221      Mn  0.47093869  0.56069763  0.72331589     1.20190
Mn222      Mn  0.51876897  0.52731372  0.78518019     1.10090
Cl223      Cl  0.52058931  0.52929947  0.72574720    -0.87220
C224        C  0.41442095  0.50363007  0.77841094     0.95110
C225        C  0.50828560  0.63349289  0.77600697     0.94910
N226        N  0.31519678  0.45789339  0.46756600    -0.07370
N227        N  0.33407007  0.43836085  0.48142884    -0.59490
N228        N  0.28482201  0.48565875  0.40342119    -0.07050
N229        N  0.28689819  0.46866718  0.37842559    -0.61620
N230        N  0.31205115  0.49957857  0.40829648    -0.06650
N231        N  0.33220062  0.49335409  0.38586070    -0.59470
N232        N  0.28827477  0.44419707  0.46183567    -0.06330
N233        N  0.28896833  0.41409487  0.47064105    -0.61970
C234        C  0.31807511  0.41106452  0.48293106     0.94800
C235        C  0.31658608  0.47376835  0.36750358     0.94580
N236        N  0.21494594  0.53235686  0.44150795    -0.07560
N237        N  0.21771800  0.55776407  0.42134010    -0.60070
N238        N  0.22111825  0.45641875  0.47924001    -0.05680
N239        N  0.22190426  0.42599219  0.48657572    -0.61320
N240        N  0.21722359  0.47295722  0.50407463    -0.07590
N241        N  0.21734962  0.45242014  0.52940072    -0.60340
N242        N  0.21905613  0.50747536  0.42474453    -0.05320
N243        N  0.22207688  0.51534269  0.39444917    -0.61410
Mn244      Mn  0.25190940  0.47337692  0.44204414     1.18440
C245        C  0.22141211  0.54667536  0.39167217     0.96880
C246        C  0.21952954  0.42268121  0.51786278     0.97550
N247        N  0.33876910  0.55520078  0.44896404    -0.07610
N248        N  0.35867266  0.57105931  0.42968179    -0.63920
N249        N  0.33319357  0.52491182  0.52306948    -0.06410
N250        N  0.34215506  0.51792610  0.55172945    -0.64590
N251        N  0.34532763  0.50601651  0.50334260    -0.07120
N252        N  0.36317218  0.48535052  0.51817241    -0.64180
N253        N  0.32663317  0.57374832  0.46931997    -0.06010
N254        N  0.33723716  0.60240172  0.46408077    -0.64870
Mn255      Mn  0.32873413  0.50514212  0.45598277     1.10660
C256        C  0.35683981  0.60080459  0.43912496     0.98110
C257        C  0.36033921  0.49297759  0.54834422     0.98180
N258        N  0.24257068  0.52790432  0.54875279    -0.07120
N259        N  0.23379207  0.51610282  0.57762806    -0.62500
N260        N  0.26437589  0.59113842  0.49768140    -0.06440
N261        N  0.27010122  0.62149686  0.49513060    -0.59230
N262        N  0.23494318  0.58380060  0.49231272    -0.07750
N263        N  0.21981370  0.61077253  0.48555628    -0.62060
N264        N  0.27100239  0.54012278  0.55060614    -0.06740
N265        N  0.28186422  0.53699409  0.57929987    -0.59250
Mn266      Mn  0.22361159  0.52909940  0.49715937     1.20190
Mn267      Mn  0.29883804  0.55771526  0.51008640     1.10090
Cl268      Cl  0.27548158  0.51688231  0.47603030    -0.87220
C269        C  0.25889057  0.52244080  0.59683269     0.95110
C270        C  0.24253009  0.63426514  0.48763688     0.94910
N271        N  0.78243762  0.50432198  0.92440279    -0.07370
N272        N  0.78495368  0.51158339  0.89395729    -0.59490
N273        N  0.80391032  0.45731076  0.98279846    -0.07050
N274        N  0.81727996  0.43468774  0.99895714    -0.61620
N275        N  0.77649511  0.44837441  0.97268826    -0.06650
N276        N  0.77072429  0.41891297  0.98163935    -0.59470
N277        N  0.80780707  0.51391708  0.93829423    -0.06330
N278        N  0.82704433  0.52911659  0.91887124    -0.61970
C279        C  0.81291259  0.52746266  0.89137499     0.94800
C280        C  0.79620158  0.41124496  0.99849085     0.94580
N281        N  0.81253785  0.51170050  0.05278928    -0.07560
N282        N  0.82169888  0.50433359  0.08132711    -0.60070
N283        N  0.83323647  0.55154502  0.98836526    -0.05680
N284        N  0.85966118  0.56662478  0.98052334    -0.61320
N285        N  0.81507350  0.56897067  0.00463561    -0.07590
N286        N  0.82704839  0.59685223  0.00689670    -0.60340
N287        N  0.82634696  0.49420448  0.03293238    -0.05320
N288        N  0.84532901  0.47433628  0.04713136    -0.61410
Mn289      Mn  0.81927112  0.50375699  0.98478377     1.18440
C290        C  0.84270665  0.48145776  0.07743420     0.96880
C291        C  0.85493804  0.59480932  0.99258828     0.97550
N292        N  0.70754702  0.46253791  0.98219369    -0.07610
N293        N  0.70768911  0.43193445  0.98460592    -0.63920
N294        N  0.71047909  0.54012655  0.95199750    -0.06410
N295        N  0.71769763  0.56383172  0.93025667    -0.64590
N296        N  0.71168990  0.51423249  0.93695275    -0.07120
N297        N  0.71592294  0.51936163  0.90684942    -0.64180
N298        N  0.70349990  0.47499423  0.00944559    -0.06010
N299        N  0.70421880  0.45087149  0.03152155    -0.64870
Mn300      Mn  0.74408248  0.48172613  0.95316908     1.10660
C301        C  0.70629358  0.42359232  0.01510638     0.98110
C302        C  0.72034069  0.54993196  0.90139221     0.98180
N303        N  0.75332693  0.58779001  0.02436177    -0.07120
N304        N  0.76264321  0.61722158  0.02464762    -0.62500
N305        N  0.72008723  0.52554173  0.06418898    -0.06440
N306        N  0.70595751  0.51913416  0.09254524    -0.59230
N307        N  0.74987244  0.53065996  0.06946500    -0.07750
N308        N  0.75717516  0.52704060  0.09887563    -0.62060
N309        N  0.72582455  0.58450351  0.01142459    -0.06740
N310        N  0.71578808  0.61324967  0.00228765    -0.59250
Mn311      Mn  0.78260990  0.54963231  0.03768306     1.20190
Mn312      Mn  0.71071694  0.53172851  0.00926811     1.10090
Cl313      Cl  0.76348802  0.51664413  0.99617662    -0.87220
C314        C  0.73956156  0.63344782  0.01093078     0.95110
C315        C  0.73026353  0.52049471  0.11402106     0.94910
N316        N  0.97351349  0.51257787  0.82328203    -0.07370
N317        N  0.95456883  0.52429513  0.84433722    -0.59490
N318        N  0.00127162  0.45231684  0.78431804    -0.07050
N319        N  0.00184051  0.42284773  0.77834748    -0.61620
N320        N  0.01609026  0.45780024  0.81007089    -0.06650
N321        N  0.02633428  0.43141210  0.82306345    -0.59470
N322        N  0.95770300  0.50526841  0.79857730    -0.06330
N323        N  0.92802370  0.51185114  0.80175126    -0.61970
C324        C  0.92650599  0.52420909  0.82969001     0.94800
C325        C  0.01684329  0.41005042  0.80266535     0.94580
N326        N  0.01738594  0.47475229  0.70256227    -0.07560
N327        N  0.03370342  0.44846365  0.69659258    -0.60070
N328        N  0.95437797  0.51844515  0.73124597    -0.05680
N329        N  0.92537814  0.52314638  0.73870128    -0.61320
N330        N  0.96651777  0.53944504  0.71106031    -0.07590
N331        N  0.94276481  0.55998538  0.70476394    -0.60340
N332        N  0.99114996  0.46498831  0.71648247    -0.05320
N333        N  0.98760632  0.43454289  0.71759914    -0.61410
Mn334      Mn  0.97638953  0.48548488  0.75762172     1.18440
C335        C  0.01388043  0.42298659  0.70601546     0.96880
C336        C  0.91646091  0.54821920  0.72243932     0.97550
N337        N  0.07315426  0.49897478  0.81559892    -0.07610
N338        N  0.09231465  0.47874951  0.82922502    -0.63920
N339        N  0.04822431  0.57150622  0.80882187    -0.06410
N340        N  0.04783267  0.60109377  0.81488187    -0.64590
N341        N  0.03209990  0.55438500  0.82998295    -0.07120
N342        N  0.02008943  0.57217326  0.85128038    -0.64180
N343        N  0.08753636  0.51457040  0.79222227    -0.06010
N344        N  0.11585230  0.50415189  0.78803780    -0.64870
Mn345      Mn  0.02366863  0.50556888  0.82233562     1.10660
C346        C  0.11925540  0.48303317  0.81201573     0.98110
C347        C  0.03051706  0.60116548  0.84128966     0.98180
N348        N  0.02947278  0.58523748  0.71660081    -0.07120
N349        N  0.01504675  0.61218960  0.70835520    -0.62500
N350        N  0.09285279  0.54115403  0.72807477    -0.06440
N351        N  0.12327648  0.53780725  0.73020300    -0.59230
N352        N  0.08000462  0.52498292  0.70627462    -0.07750
N353        N  0.10359897  0.50836774  0.69375518    -0.62060
N354        N  0.04823768  0.59104431  0.73994419    -0.06740
N355        N  0.04793523  0.62042827  0.74741240    -0.59250
Mn356      Mn  0.02351912  0.53133846  0.70538042     1.20190
Mn357      Mn  0.06928462  0.55499601  0.76754870     1.10090
Cl358      Cl  0.02301603  0.51997559  0.76279101    -0.87220
C359        C  0.02741921  0.63398103  0.72788476     0.95110
C360        C  0.13073985  0.51726344  0.70935961     0.94910
N361        N  0.30817369  0.51835515  0.94248176    -0.07370
N362        N  0.30683392  0.49778762  0.91904903    -0.59490
N363        N  0.28356650  0.59129654  0.97082452    -0.07050
N364        N  0.27642159  0.62088475  0.97139044    -0.61620
N365        N  0.29495999  0.58000260  0.99728741    -0.06650
N366        N  0.29430375  0.60389567  0.01716158    -0.59470
N367        N  0.30617551  0.54596527  0.92852185    -0.06330
N368        N  0.30929160  0.54553217  0.89782388    -0.61970
C369        C  0.30789683  0.51570509  0.89032182     0.94800
C370        C  0.28284619  0.63002189  0.99992918     0.94580
N371        N  0.19190548  0.56676008  0.96325743    -0.07560
N372        N  0.16949988  0.58692021  0.96779724    -0.60070
N373        N  0.23611819  0.52716604  0.91538264    -0.05680
N374        N  0.24267293  0.51829621  0.88730721    -0.61320
N375        N  0.21120739  0.51172845  0.92652867    -0.07590
N376        N  0.20143459  0.49130612  0.90699250    -0.60340
N377        N  0.21748424  0.58119109  0.95217368    -0.05320
N378        N  0.21358043  0.61118719  0.94856814    -0.61410
Mn379      Mn  0.26071303  0.56134351  0.94152602     1.18440
C380        C  0.18407479  0.61413027  0.95836549     0.96880
C381        C  0.22116164  0.49595840  0.88229138     0.97550
N382        N  0.28299648  0.52632678  0.05473094    -0.07610
N383        N  0.28948359  0.54361861  0.07979559    -0.63920
N384        N  0.27495597  0.45616787  0.02621448    -0.06410
N385        N  0.26916961  0.42614440  0.02558596    -0.64590
N386        N  0.29279649  0.46662496  0.00248571    -0.07120
N387        N  0.29568000  0.44265861  0.98309639    -0.64180
N388        N  0.25870533  0.50834757  0.06326602    -0.06010
N389        N  0.24973786  0.51132780  0.09228898    -0.64870
Mn390      Mn  0.29850999  0.52263187  0.99966063     1.10660
C391        C  0.26780547  0.53362720  0.10349152     0.98110
C392        C  0.28061079  0.41686964  0.99857776     0.98180
N393        N  0.19330205  0.46794641  0.97753562    -0.07120
N394        N  0.17804119  0.44817464  0.96097263    -0.62500
N395        N  0.18989684  0.50588766  0.04074369    -0.06440
N396        N  0.17409336  0.50599703  0.06716539    -0.59230
N397        N  0.17400069  0.51978164  0.01805800    -0.07750
N398        N  0.14700747  0.53023152  0.02855729    -0.62060
N399        N  0.20777286  0.45357467  0.00074574    -0.06740
N400        N  0.20147453  0.42328420  0.00137167    -0.59250
Mn401      Mn  0.19086008  0.51712226  0.97089566     1.20190
Mn402      Mn  0.23299336  0.48113548  0.03328103     1.10090
Cl403      Cl  0.24530330  0.52169486  0.98792396    -0.87220
C404        C  0.18339344  0.42046923  0.97588346     0.95110
C405        C  0.14766594  0.52109867  0.05927971     0.94910
N406        N  0.96625832  0.54910277  0.17406372    -0.07370
N407        N  0.95360722  0.53684545  0.14997854    -0.59490
N408        N  0.98871881  0.60620068  0.21476254    -0.07050
N409        N  0.98826113  0.63700112  0.21524227    -0.61620
N410        N  0.01045282  0.59787503  0.19494614    -0.06650
N411        N  0.02571976  0.62197008  0.18200680    -0.59470
N412        N  0.94498291  0.55427748  0.19550314    -0.06330
N413        N  0.91672359  0.54599176  0.18626954    -0.61970
C414        C  0.92299136  0.53540790  0.15759305     0.94800
C415        C  0.01219585  0.64604403  0.19531683     0.94580
N416        N  0.00019814  0.57448815  0.29532523    -0.07560
N417        N  0.01931869  0.59987949  0.29790820    -0.60070
N418        N  0.93553269  0.53328502  0.26396704    -0.05680
N419        N  0.90532603  0.52907781  0.26045588    -0.61320
N420        N  0.94743674  0.51479069  0.28629742    -0.07590
N421        N  0.92329208  0.49697129  0.29870581    -0.60340
N422        N  0.97337738  0.58480262  0.28465698    -0.05320
N423        N  0.97218615  0.61516875  0.28440662    -0.61410
Mn424      Mn  0.95994072  0.56964930  0.23982909     1.18440
C425        C  0.00061888  0.62572475  0.29105738     0.96880
C426        C  0.89714871  0.50644593  0.28172666     0.97550
N427        N  0.06435973  0.55473795  0.18901395    -0.07610
N428        N  0.08469928  0.56977279  0.17023471    -0.63920
N429        N  0.03016465  0.48298854  0.18586982    -0.06410
N430        N  0.02252739  0.45510524  0.17642618    -0.64590
N431        N  0.01808707  0.50485108  0.16750977    -0.07120
N432        N  0.00143724  0.49249901  0.14559991    -0.64180
N433        N  0.07819191  0.53292966  0.20599088    -0.06010
N434        N  0.10850057  0.53323925  0.19949116    -0.64870
Mn435      Mn  0.01525916  0.55219519  0.18073423     1.10660
C436        C  0.11191819  0.55473880  0.17531364     0.98110
C437        C  0.00422936  0.46153092  0.15134023     0.98180
N438        N  0.00748712  0.46538317  0.28042946    -0.07120
N439        N  0.99623227  0.43722295  0.29184617    -0.62500
N440        N  0.07313359  0.50612939  0.27079900    -0.06440
N441        N  0.10367349  0.51023617  0.26887637    -0.59230
N442        N  0.05968381  0.52357891  0.29140314    -0.07750
N443        N  0.08258653  0.54173085  0.30294858    -0.62060
N444        N  0.02412006  0.46044775  0.25490999    -0.06740
N445        N  0.02488627  0.43090895  0.24858401    -0.59250
Mn446      Mn  0.00381304  0.51933269  0.29221006     1.20190
Mn447      Mn  0.05115006  0.49492839  0.22929184     1.10090
Cl448      Cl  0.00681332  0.53317592  0.23607594    -0.87220
C449        C  0.00794945  0.41581837  0.27142453     0.95110
C450        C  0.11015283  0.53232649  0.28855095     0.94910
N451        N  0.93995516  0.22765447  0.01000537    -0.07370
N452        N  0.91698134  0.23420668  0.03130546    -0.59490
N453        N  0.96854579  0.23165247  0.93206044    -0.07050
N454        N  0.96944075  0.23356262  0.90139387    -0.61620
N455        N  0.99600467  0.22595650  0.94440183    -0.06650
N456        N  0.01704288  0.22690354  0.91996289    -0.59470
N457        N  0.92592338  0.22656385  0.98325502    -0.06330
N458        N  0.89528123  0.22627591  0.98620065    -0.61970
C459        C  0.88829602  0.23298599  0.01544403     0.94800
C460        C  0.99943974  0.23105917  0.89270260     0.94580
N461        N  0.97119789  0.32740936  0.92824321    -0.07560
N462        N  0.98527190  0.34166382  0.90401452    -0.60070
N463        N  0.91759799  0.30004197  0.97877757    -0.05680
N464        N  0.88877440  0.29794328  0.98965966    -0.61320
N465        N  0.93036825  0.32692918  0.98578521    -0.07590
N466        N  0.91084348  0.34311147  0.00217951    -0.60340
N467        N  0.95843744  0.30078017  0.92063022    -0.05320
N468        N  0.96341187  0.29623669  0.89085445    -0.61410
Mn469      Mn  0.94198160  0.26503648  0.95363199     1.18440
C470        C  0.98059032  0.32149883  0.88150040     0.96880
C471        C  0.88513087  0.32451533  0.00448922     0.97550
N472        N  0.05188515  0.23959123  0.99478123    -0.07610
N473        N  0.07695661  0.22601838  0.98185196    -0.63920
N474        N  0.01643090  0.26916648  0.05880908    -0.06410
N475        N  0.01781796  0.27516047  0.08858585    -0.64590
N476        N  0.00211419  0.24228394  0.05427507    -0.07120
N477        N  0.99298650  0.22943249  0.08245626    -0.64180
N478        N  0.06148562  0.26653323  0.00483185    -0.06010
N479        N  0.09158362  0.27197699  0.99992947    -0.64870
Mn480      Mn  0.99744029  0.23028919  0.00144312     1.10660
C481        C  0.10157698  0.24703733  0.98563209     0.98110
C482        C  0.00340368  0.25054441  0.10355761     0.98180
N483        N  0.98302445  0.35135720  0.02247967    -0.07120
N484        N  0.96793701  0.37185424  0.03862836    -0.62500
N485        N  0.04688686  0.33090058  0.98216159    -0.06440
N486        N  0.07605567  0.33688897  0.97360352    -0.59230
N487        N  0.02761378  0.34841687  0.96566612    -0.07750
N488        N  0.04366437  0.36829474  0.94639941    -0.62060
N489        N  0.00356917  0.33668135  0.03982645    -0.06740
N490        N  0.00353442  0.34718077  0.06813213    -0.59250
Mn491      Mn  0.97740446  0.34041026  0.97471432     1.20190
Mn492      Mn  0.03223947  0.30087403  0.02170557     1.10090
Cl493      Cl  0.98774375  0.28390143  0.98805648    -0.87220
C494        C  0.98083574  0.36886090  0.06727715     0.95110
C495        C  0.07406533  0.36040179  0.95158228     0.94910
N496        N  0.98313861  0.70225784  0.02265524    -0.07370
N497        N  0.96883747  0.67699285  0.03507728    -0.59490
N498        N  0.99018206  0.72567602  0.94726232    -0.07050
N499        N  0.98361066  0.72213436  0.91756688    -0.61620
N500        N  0.01073612  0.70538335  0.95729878    -0.06650
N501        N  0.01915148  0.68733380  0.93500624    -0.59470
N502        N  0.96241548  0.72355208  0.01503065    -0.06330
N503        N  0.93404413  0.71424353  0.02385197    -0.61970
C504        C  0.93810636  0.68471112  0.03490481     0.94800
C505        C  0.00213822  0.69825402  0.91055568     0.94580
N506        N  0.00573064  0.81774440  0.94794539    -0.07560
N507        N  0.02008362  0.82610503  0.92012258    -0.60070
N508        N  0.95040525  0.78883352  0.00734174    -0.05680
N509        N  0.92039752  0.78384402  0.01242974    -0.61320
N510        N  0.95973530  0.81748919  0.01179877    -0.07590
N511        N  0.93351711  0.83347051  0.01875111    -0.60340
N512        N  0.98481346  0.79539876  0.94269622    -0.05320
N513        N  0.98385154  0.78932814  0.91276404    -0.61410
Mn514      Mn  0.97143522  0.75877956  0.97804336     1.18440
C515        C  0.00557497  0.80811357  0.89812900     0.96880
C516        C  0.90910280  0.81121489  0.01938186     0.97550
N517        N  0.07502504  0.71750587  0.98067833    -0.07610
N518        N  0.09119352  0.70135424  0.96101000    -0.63920
N519        N  0.06751489  0.73504017  0.05464949    -0.06410
N520        N  0.07114261  0.73599080  0.08513113    -0.64590
N521        N  0.05017328  0.71064017  0.04817996    -0.07120
N522        N  0.04122674  0.69468454  0.07401415    -0.64180
N523        N  0.09053180  0.74297904  0.98677382    -0.06010
N524        N  0.11757625  0.74500289  0.97166742    -0.64870
Mn525      Mn  0.03003266  0.70711801  0.00264524     1.10660
C526        C  0.11791935  0.71870234  0.95609841     0.98110
C527        C  0.05459338  0.71087961  0.09668187     0.98180
N528        N  0.02719703  0.81886751  0.05416271    -0.07120
N529        N  0.01362274  0.82184174  0.08256929    -0.62500
N530        N  0.08005642  0.80791049  0.97893287    -0.06440
N531        N  0.11079338  0.80819442  0.97505647    -0.59230
N532        N  0.07058287  0.82982004  0.99638005    -0.07750
N533        N  0.09583960  0.83740492  0.01360335    -0.62060
N534        N  0.05343144  0.80322347  0.05761817    -0.06740
N535        N  0.05810143  0.79628771  0.08767004    -0.59250
Mn536      Mn  0.01497642  0.82490907  0.00239491     1.20190
Mn537      Mn  0.07421083  0.77380924  0.02002466     1.10090
Cl538      Cl  0.02193279  0.76591189  0.00167915    -0.87220
C539        C  0.03382200  0.80762261  0.10382245     0.95110
C540        C  0.12137425  0.82352776  0.99924037     0.94910
N541        N  0.56631420  0.74624405  0.00214392    -0.07370
N542        N  0.59278062  0.73126175  0.99377493    -0.59490
N543        N  0.53633233  0.76139986  0.07056003    -0.07050
N544        N  0.53947641  0.76223867  0.10114336    -0.61620
N545        N  0.51572022  0.73994979  0.06286098    -0.06650
N546        N  0.50295517  0.72698739  0.08986010    -0.59470
N547        N  0.57574425  0.77325479  0.01201420    -0.06330
N548        N  0.60620886  0.77787247  0.01036526    -0.61970
C549        C  0.61756713  0.75222809  0.99877504     0.94800
C550        C  0.51854848  0.74136013  0.11381013     0.94580
N551        N  0.50134650  0.84973601  0.05790352    -0.07560
N552        N  0.47882559  0.85255064  0.07910247    -0.60070
N553        N  0.56154854  0.83843210  0.00648660    -0.05680
N554        N  0.58854684  0.84050186  0.99165928    -0.61320
N555        N  0.54395630  0.86204468  0.99839284    -0.07590
N556        N  0.55974525  0.88215103  0.97916180    -0.60340
N557        N  0.52156195  0.82897364  0.06800859    -0.05320
N558        N  0.51315108  0.81736645  0.09582298    -0.61410
Mn559      Mn  0.54908824  0.80118463  0.03914670     1.18440
C560        C  0.48647442  0.83149930  0.10232029     0.96880
C561        C  0.58820791  0.86855336  0.97606091     0.97550
N562        N  0.45262851  0.73646216  0.01299416    -0.07610
N563        N  0.42966882  0.72097475  0.03037692    -0.63920
N564        N  0.48310296  0.76823686  0.94301215    -0.06410
N565        N  0.48454126  0.77597184  0.91313205    -0.64590
N566        N  0.50520529  0.74837336  0.95152353    -0.07120
N567        N  0.52242644  0.74335009  0.92516358    -0.64180
N568        N  0.43807977  0.75770464  0.99541533    -0.06010
N569        N  0.40763353  0.75693626  0.99883453    -0.64870
Mn570      Mn  0.50967765  0.73896564  0.00744433     1.10660
C571        C  0.40155506  0.73443212  0.02038790     0.98110
C572        C  0.50828060  0.76086838  0.90084948     0.98180
N573        N  0.48734937  0.86037467  0.95917083    -0.07120
N574        N  0.50244718  0.87863111  0.93790630    -0.62500
N575        N  0.42987852  0.82618488  0.00341728    -0.06440
N576        N  0.39938344  0.83110740  0.00572119    -0.59230
N577        N  0.44545777  0.84723934  0.01831917    -0.07750
N578        N  0.42623907  0.86603977  0.03194795    -0.62060
N579        N  0.47255059  0.83770208  0.94589040    -0.06740
N580        N  0.47621346  0.84013166  0.91535471    -0.59250
Mn581      Mn  0.49458529  0.85671723  0.00889752     1.20190
Mn582      Mn  0.45561472  0.79691753  0.97169091     1.10090
Cl583      Cl  0.50180962  0.79736606  0.00685336    -0.87220
C584        C  0.49477528  0.86556486  0.91094223     0.95110
C585        C  0.39747245  0.85686077  0.02290124     0.94910
N586        N  0.53715492  0.95741199  0.77809895    -0.07370
N587        N  0.53957399  0.92694503  0.77845817    -0.59490
N588        N  0.49715789  0.99875101  0.82874693    -0.07050
N589        N  0.48177102  0.99823035  0.85590252    -0.61620
N590        N  0.47979585  0.98669691  0.80759071    -0.06650
N591        N  0.45285344  0.97684452  0.81949244    -0.59470
N592        N  0.55356696  0.96884417  0.80098945    -0.06330
N593        N  0.56454881  0.94549994  0.81879414    -0.61970
C594        C  0.55433323  0.91932146  0.80512368     0.94800
C595        C  0.45405057  0.98383658  0.84967319     0.94580
N596        N  0.53069986  0.08426459  0.79870516    -0.07560
N597        N  0.51270311  0.10807674  0.80269629    -0.60070
N598        N  0.59016015  0.03592200  0.80462716    -0.05680
N599        N  0.60807088  0.04009529  0.82885556    -0.61320
N600        N  0.59436569  0.05991384  0.78414663    -0.07590
N601        N  0.61417735  0.08067019  0.79486650    -0.60340
N602        N  0.52701913  0.06297135  0.82180591    -0.05320
N603        N  0.50695045  0.07277160  0.84280483    -0.61410
Mn604      Mn  0.54328502  0.01613087  0.81557129     1.18440
C605        C  0.49907601  0.10140186  0.83057642     0.96880
C606        C  0.62187135  0.06856452  0.82311763     0.97550
N607        N  0.45616506  0.00568282  0.74197955    -0.07610
N608        N  0.42613775  0.00396332  0.75011509    -0.63920
N609        N  0.52571017  0.98013049  0.70202371    -0.06410
N610        N  0.54600009  0.95717248  0.69497238    -0.64590
N611        N  0.50169362  0.96622510  0.71632912    -0.07120
N612        N  0.50270671  0.93575828  0.71683528    -0.64180
N613        N  0.46225068  0.02626557  0.71846881    -0.06010
N614        N  0.43498539  0.03988297  0.71071628    -0.64870
Mn615      Mn  0.49368767  0.97964515  0.76136464     1.10660
C616        C  0.41263330  0.02539553  0.73077325     0.98110
C617        C  0.53038902  0.92909642  0.70452710     0.98180
N618        N  0.58015581  0.07361253  0.71365770    -0.07120
N619        N  0.61034853  0.07744903  0.71767403    -0.62500
N620        N  0.50467964  0.08988844  0.71356787    -0.06440
N621        N  0.48165762  0.11092316  0.70791483    -0.59230
N622        N  0.52375494  0.10286833  0.73286311    -0.07750
N623        N  0.51622247  0.13121736  0.73993440    -0.62060
N624        N  0.57281653  0.04555490  0.70465005    -0.06740
N625        N  0.59894844  0.02815148  0.70840018    -0.59250
Mn626      Mn  0.55724290  0.07966723  0.75717085     1.20190
Mn627      Mn  0.51682372  0.03551468  0.70564301     1.10090
Cl628      Cl  0.52751891  0.02795994  0.76013014    -0.87220
C629        C  0.62260964  0.04918295  0.71593818     0.95110
C630        C  0.48985067  0.13683860  0.72488416     0.94910
N631        N  0.49550905  0.19401231  0.97383655    -0.07370
N632        N  0.48421722  0.17187700  0.95686047    -0.59490
N633        N  0.55513610  0.22072304  0.01119872    -0.07050
N634        N  0.58451571  0.21219443  0.01326248    -0.61620
N635        N  0.53722961  0.20242568  0.02936290    -0.06650
N636        N  0.55381422  0.18125274  0.04469224    -0.59470
N637        N  0.51009402  0.21574907  0.95640385    -0.06330
N638        N  0.50860056  0.20985434  0.92681557    -0.61970
C639        C  0.49272848  0.18238183  0.92759172     0.94800
C640        C  0.58336726  0.18696957  0.03381978     0.94580
N641        N  0.54894098  0.31349673  0.00904577    -0.07560
N642        N  0.57464020  0.32779987  0.02083251    -0.60070
N643        N  0.51614912  0.28444974  0.94272521    -0.05680
N644        N  0.51643535  0.27736375  0.91330481    -0.61320
N645        N  0.49906711  0.30904256  0.94784124    -0.07590
N646        N  0.48705919  0.31869572  0.91968730    -0.60340
N647        N  0.55897817  0.28743903  0.99783509    -0.05320
N648        N  0.58860580  0.28251179  0.00247168    -0.61410
Mn649      Mn  0.53504364  0.25273123  0.97669840     1.18440
C650        C  0.59939658  0.30730475  0.01617524     0.96880
C651        C  0.49904426  0.29846679  0.89792772     0.97550
N652        N  0.48286293  0.21391704  0.06742833    -0.07610
N653        N  0.50417371  0.20592770  0.08741270    -0.63920
N654        N  0.42297851  0.22793407  0.01975838    -0.06410
N655        N  0.39900689  0.23121990  0.00109476    -0.64590
N656        N  0.43979693  0.20412141  0.01198182    -0.07120
N657        N  0.42739223  0.19057377  0.98806994    -0.64180
N658        N  0.46368956  0.23399458  0.07889697    -0.06010
N659        N  0.47002712  0.23768291  0.10872244    -0.64870
Mn660      Mn  0.48808070  0.20193683  0.02170276     1.10660
C661        C  0.49525045  0.21923468  0.11354735     0.98110
C662        C  0.40244986  0.20826066  0.98121669     0.98180
N663        N  0.43684644  0.31635845  0.99483472    -0.07120
N664        N  0.41600567  0.32727723  0.97341466    -0.62500
N665        N  0.45786212  0.30299861  0.06919653    -0.06440
N666        N  0.45320618  0.30080951  0.09953623    -0.59230
N667        N  0.48427667  0.31756060  0.06034915    -0.07750
N668        N  0.49922277  0.32339889  0.08749847    -0.62060
N669        N  0.42109885  0.29669235  0.01420351    -0.06740
N670        N  0.39125294  0.29438413  0.00805041    -0.59250
Mn671      Mn  0.49283743  0.31809500  0.00289181     1.20190
Mn672      Mn  0.44053528  0.26508725  0.04605552     1.10090
Cl673      Cl  0.48921659  0.26017960  0.01156029    -0.87220
C674        C  0.38743043  0.31295827  0.98263801     0.95110
C675        C  0.47856676  0.31297771  0.11206155     0.94910
N676        N  0.48784757  0.96409341  0.17053764    -0.07370
N677        N  0.48818491  0.94440547  0.14803832    -0.59490
N678        N  0.43651324  0.01136420  0.18956342    -0.07050
N679        N  0.40859261  0.00731958  0.17744231    -0.61620
N680        N  0.45622336  0.02445536  0.16833235    -0.06650
N681        N  0.44199839  0.03023189  0.14186829    -0.59470
N682        N  0.46974147  0.95355715  0.19382582    -0.06330
N683        N  0.45603388  0.92729457  0.18766673    -0.61970
C684        C  0.46792664  0.92193106  0.15943303     0.94800
C685        C  0.41276124  0.01903887  0.14781918     0.94580
N686        N  0.44566479  0.02119133  0.28366216    -0.07560
N687        N  0.42188017  0.03563314  0.29821662    -0.60070
N688        N  0.47029889  0.95077694  0.26527531    -0.05680
N689        N  0.46732193  0.92035801  0.26384428    -0.61320
N690        N  0.49168538  0.95865712  0.28558714    -0.07590
N691        N  0.50488475  0.93197008  0.29694177    -0.60340
N692        N  0.43325259  0.00824009  0.25955066    -0.05320
N693        N  0.40325975  0.01237982  0.25678946    -0.61410
Mn694      Mn  0.45297045  0.98131123  0.22788961     1.18440
C695        C  0.39554696  0.02926157  0.28044577     0.96880
C696        C  0.48860711  0.90794025  0.28329943     0.97550
N697        N  0.52069459  0.05789051  0.16242736    -0.07610
N698        N  0.51482051  0.07916326  0.14017726    -0.63920
N699        N  0.56941736  0.00540813  0.19322615    -0.06410
N700        N  0.59165489  0.98447689  0.19860565    -0.64590
N701        N  0.55057604  0.99527316  0.17174790    -0.07120
N702        N  0.55894821  0.96784134  0.16249516    -0.64180
N703        N  0.53741646  0.06973127  0.18419480    -0.06010
N704        N  0.54314340  0.09948687  0.17796965    -0.64870
Mn705      Mn  0.50415091  0.01106560  0.16752057     1.10660
C706        C  0.52887773  0.10506434  0.15042926     0.98110
C707        C  0.58454392  0.96100420  0.17927914     0.98180
N708        N  0.55681947  0.00566167  0.28676164    -0.07120
N709        N  0.58030215  0.99278335  0.30414687    -0.62500
N710        N  0.52875763  0.07707665  0.25460263    -0.06440
N711        N  0.52509374  0.10737051  0.24712409    -0.59230
N712        N  0.50890078  0.06742185  0.27754717    -0.07750
N713        N  0.49141059  0.09182929  0.28542675    -0.62060
N714        N  0.57009336  0.01734980  0.26075039    -0.06740
N715        N  0.60006989  0.01226417  0.25880744    -0.59250
Mn716      Mn  0.50108164  0.01321567  0.28696297     1.20190
Mn717      Mn  0.55212412  0.04313040  0.22362991     1.10090
Cl718      Cl  0.50253516  0.01237398  0.22692867    -0.87220
C719        C  0.60750381  0.99745282  0.28550482     0.95110
C720        C  0.50207692  0.11707792  0.26651710     0.94910
N721        N  0.31765892  0.08347769  0.02208777    -0.07370
N722        N  0.32848754  0.08468613  0.05045961    -0.59490
N723        N  0.30315959  0.10371930  0.94871746    -0.07050
N724        N  0.31276447  0.12697355  0.92957209    -0.61620
N725        N  0.27994213  0.11221922  0.96668862    -0.06650
N726        N  0.27332129  0.14144733  0.95929439    -0.59470
N727        N  0.33933497  0.07423298  0.00299680    -0.06330
N728        N  0.36535521  0.06843884  0.01821840    -0.61970
C729        C  0.35826843  0.07509014  0.04810097     0.94800
C730        C  0.29605936  0.15141918  0.93888268     0.94580
N731        N  0.30182602  0.02300056  0.90617617    -0.07560
N732        N  0.31705490  0.01145573  0.88253877    -0.60070
N733        N  0.34679931  0.01439388  0.96797751    -0.05680
N734        N  0.37160708  0.00448870  0.98399189    -0.61320
N735        N  0.32863422  0.99050803  0.96206138    -0.07590
N736        N  0.33998516  0.96418445  0.97283665    -0.60340
N737        N  0.31390526  0.05071190  0.91098776    -0.05320
N738        N  0.33472542  0.05938490  0.88909780    -0.61410
Mn739      Mn  0.32730360  0.06125173  0.95733163     1.18440
C740        C  0.33859025  0.03375751  0.87316796     0.96880
C741        C  0.36644095  0.97296503  0.98636026     0.97550
N742        N  0.21934979  0.09169410  0.00909183    -0.07610
N743        N  0.21426115  0.12160113  0.01084672    -0.63920
N744        N  0.23626906  0.03199260  0.04425440    -0.06410
N745        N  0.23119893  0.01670621  0.07239976    -0.64590
N746        N  0.25645018  0.05496531  0.04877456    -0.07120
N747        N  0.26492504  0.05659377  0.07803296    -0.64180
N748        N  0.21204080  0.08130074  0.98219279    -0.06010
N749        N  0.20816126  0.10726608  0.96275043    -0.64870
Mn750      Mn  0.26895454  0.08613791  0.01160432     1.10660
C751        C  0.20946698  0.13306358  0.98186916     0.98110
C752        C  0.24935594  0.03284044  0.09324335     0.98180
N753        N  0.26593761  0.96558023  0.98377694    -0.07120
N754        N  0.27538106  0.93693503  0.98915514    -0.62500
N755        N  0.22286402  0.01887677  0.93451232    -0.06440
N756        N  0.22375606  0.03601754  0.90688977    -0.59230
N757        N  0.23548625  0.99200938  0.92902207    -0.07750
N758        N  0.23799679  0.98764256  0.89908813    -0.62060
N759        N  0.23950472  0.97148595  0.99840671    -0.06740
N760        N  0.23041473  0.94439971  0.01434220    -0.59250
Mn761      Mn  0.28295712  0.99305929  0.94539403     1.20190
Mn762      Mn  0.22348101  0.02564321  0.98959242     1.10090
Cl763      Cl  0.27647995  0.04015135  0.97778763    -0.87220
C764        C  0.25346955  0.92267448  0.00763322     0.95110
C765        C  0.23360470  0.01536880  0.88466167     0.94910
N766        N  0.79509641  0.97355842  0.00767047    -0.07370
N767        N  0.80267417  0.94832217  0.02628279    -0.59490
N768        N  0.76905033  0.01862190  0.94253950    -0.07050
N769        N  0.76780930  0.02400536  0.91233322    -0.61620
N770        N  0.78952672  0.03658717  0.95631163    -0.06650
N771        N  0.80331553  0.05516993  0.93306559    -0.59470
N772        N  0.78230737  0.96285293  0.98238266    -0.06330
N773        N  0.78299986  0.93233713  0.98194125    -0.61970
C774        C  0.79521880  0.92261253  0.00908515     0.94800
C775        C  0.78897313  0.04644321  0.90559827     0.94580
N776        N  0.67575842  0.00652425  0.95880090    -0.07560
N777        N  0.65474397  0.02314824  0.94405474    -0.60070
N778        N  0.71367261  0.94599847  0.98664430    -0.05680
N779        N  0.71614982  0.91522901  0.98787763    -0.61320
N780        N  0.69132211  0.95427880  0.00558778    -0.07590
N781        N  0.67891989  0.93003455  0.02104666    -0.60340
N782        N  0.70035459  0.00245529  0.94094293    -0.05320
N783        N  0.69668885  0.01673701  0.91302804    -0.61410
Mn784      Mn  0.74173936  0.98257574  0.96243937     1.18440
C785        C  0.66778279  0.02929464  0.91572506     0.96880
C786        C  0.69383214  0.90542080  0.00949508     0.97550
N787        N  0.77737755  0.08189649  0.01927914    -0.07610
N788        N  0.78960082  0.11069350  0.01141743    -0.63920
N789        N  0.75725409  0.03021848  0.08039499    -0.06410
N790        N  0.75358949  0.02332431  0.11053076    -0.64590
N791        N  0.78369855  0.01970014  0.06872351    -0.07120
N792        N  0.79888563  0.00507263  0.09276174    -0.64180
N793        N  0.75081874  0.08589131  0.03476505    -0.06010
N794        N  0.74455014  0.11549013  0.03782753    -0.64870
Mn795      Mn  0.79005108  0.02842790  0.01307397     1.10660
C796        C  0.76846389  0.13148260  0.02369572     0.98110
C797        C  0.77914419  0.00758413  0.11876535     0.98180
N798        N  0.67586876  0.99500242  0.05666594    -0.07120
N799        N  0.65997588  0.97315872  0.07257415    -0.62500
N800        N  0.68285759  0.06804960  0.02626853    -0.06440
N801        N  0.67739987  0.09752914  0.01886832    -0.59230
N802        N  0.66557966  0.04977903  0.00961986    -0.07750
N803        N  0.64786864  0.06646905  0.99035223    -0.62060
N804        N  0.68961058  0.01408070  0.07508732    -0.06740
N805        N  0.68260269  0.00622000  0.10473341    -0.59250
Mn806      Mn  0.67608915  0.00091375  0.00783990     1.20190
Mn807      Mn  0.72020987  0.05010407  0.05445667     1.10090
Cl808      Cl  0.73259929  0.01595052  0.00933540    -0.87220
C809        C  0.66388732  0.98058314  0.10232376     0.95110
C810        C  0.65578552  0.09621104  0.99615011     0.94910
N811        N  0.94177846  0.81480511  0.44951417    -0.07370
N812        N  0.91236586  0.82384336  0.45183769    -0.59490
N813        N  0.01061616  0.81036915  0.40997106    -0.07050
N814        N  0.01812604  0.82675947  0.38432533    -0.61620
N815        N  0.98793490  0.79027677  0.40444767    -0.06650
N816        N  0.97823259  0.79478198  0.37538091    -0.59470
N817        N  0.96134593  0.83848146  0.45187507    -0.06330
N818        N  0.94611356  0.86421665  0.45614858    -0.61970
C819        C  0.91578999  0.85484775  0.45575296     0.94800
C820        C  0.99675791  0.81848441  0.36320211     0.94580
N821        N  0.07298310  0.81373445  0.48048635    -0.07560
N822        N  0.10111904  0.82400868  0.48625041    -0.60070
N823        N  0.01085746  0.85437909  0.49933049    -0.05680
N824        N  0.00026425  0.88136922  0.50853658    -0.61320
N825        N  0.02200463  0.83783253  0.52320965    -0.07590
N826        N  0.01984387  0.85265288  0.54908277    -0.60340
N827        N  0.06158109  0.82918192  0.45614692    -0.05320
N828        N  0.08205042  0.85091447  0.44581961    -0.61410
Mn829      Mn  0.01138093  0.83392552  0.45354699     1.18440
C830        C  0.10597135  0.84876431  0.46624681     0.96880
C831        C  0.00646895  0.87959734  0.53966020     0.97550
N832        N  0.97660771  0.72331401  0.43494707    -0.07610
N833        N  0.97862986  0.72197307  0.40441472    -0.63920
N834        N  0.94715055  0.73298250  0.50482900    -0.06410
N835        N  0.92291290  0.72615120  0.52527290    -0.64590
N836        N  0.93508424  0.74949250  0.48112105    -0.07120
N837        N  0.90489193  0.75395020  0.48403871    -0.64180
N838        N  0.00396140  0.71901900  0.44815779    -0.06010
N839        N  0.02596611  0.72076424  0.42487675    -0.64870
Mn840      Mn  0.95991077  0.76903752  0.44279896     1.10660
C841        C  0.00926445  0.72206469  0.39722281     0.98110
C842        C  0.89652780  0.73957849  0.51130284     0.98180
N843        N  0.01826942  0.77354137  0.55660466    -0.07120
N844        N  0.01991913  0.78268786  0.58537960    -0.62500
N845        N  0.06113141  0.73153444  0.49890373    -0.06440
N846        N  0.08614900  0.72174306  0.48199267    -0.59230
N847        N  0.07157295  0.75412588  0.51567844    -0.07750
N848        N  0.10199886  0.75902434  0.51242019    -0.62060
N849        N  0.00615511  0.74522391  0.55517534    -0.06740
N850        N  0.99947579  0.73451572  0.58500787    -0.59250
Mn851      Mn  0.04514401  0.79477099  0.51906547     1.20190
Mn852      Mn  0.00445167  0.72817638  0.50246580     1.10090
Cl853      Cl  0.00459995  0.78139507  0.48018044    -0.87220
C854        C  0.00861509  0.75863898  0.60376617     0.95110
C855        C  0.11196582  0.73939923  0.49141070     0.94910
N856        N  0.82455705  0.97478254  0.54287376    -0.07370
N857        N  0.83259575  0.94596614  0.53795521    -0.59490
N858        N  0.82490562  0.04482781  0.57324112    -0.07050
N859        N  0.83310928  0.06545026  0.59380023    -0.61620
N860        N  0.80267421  0.02624863  0.58516738    -0.06650
N861        N  0.79348983  0.03516175  0.61230510    -0.59470
N862        N  0.84502480  0.99468337  0.52965578    -0.06330
N863        N  0.86747131  0.97984989  0.51543824    -0.61970
C864        C  0.85955349  0.94935486  0.52101930     0.94800
C865        C  0.81312101  0.05829618  0.61848207     0.94580
N866        N  0.79471117  0.09771569  0.49765405    -0.07560
N867        N  0.78824799  0.12727171  0.49970282    -0.60070
N868        N  0.83674883  0.03992053  0.47308979    -0.05680
N869        N  0.85884343  0.02725323  0.45608418    -0.61320
N870        N  0.81254529  0.04724098  0.45565475    -0.07590
N871        N  0.81702297  0.03969009  0.42686447    -0.60340
N872        N  0.81643010  0.08919894  0.51756826    -0.05320
N873        N  0.82439972  0.11249065  0.53442358    -0.61410
Mn874      Mn  0.83317142  0.04294730  0.52337017     1.18440
C875        C  0.80674143  0.13612317  0.52273160     0.96880
C876        C  0.84540919  0.02701766  0.42765115     0.97550
N877        N  0.73816167  0.00046049  0.58581834    -0.07610
N878        N  0.73871790  0.00172362  0.61639302    -0.63920
N879        N  0.73175285  0.96396073  0.52120946    -0.06410
N880        N  0.72404008  0.93833071  0.50597269    -0.64590
N881        N  0.75572146  0.95645767  0.53910921    -0.07120
N882        N  0.76451314  0.92742324  0.53727973    -0.64180
N883        N  0.71882490  0.02052741  0.57262005    -0.06010
N884        N  0.70738337  0.03795659  0.59563769    -0.64870
Mn885      Mn  0.78060080  0.98890598  0.56321238     1.10660
C886        C  0.72027248  0.02528156  0.62318995     0.98110
C887        C  0.74501070  0.91592710  0.51667406     0.98180
N888        N  0.74461719  0.03311056  0.44680610    -0.07120
N889        N  0.74937282  0.02809612  0.41706487    -0.62500
N890        N  0.71498568  0.07473872  0.51192816    -0.06440
N891        N  0.71161235  0.09990638  0.52987211    -0.59230
N892        N  0.72625677  0.08565242  0.48472646    -0.07750
N893        N  0.72680927  0.11632409  0.48232682    -0.62060
N894        N  0.72421318  0.01349863  0.46090748    -0.06740
N895        N  0.71488776  0.99351503  0.43920504    -0.59250
Mn896      Mn  0.76979094  0.06599122  0.47073323     1.20190
Mn897      Mn  0.71886574  0.01815958  0.51696762     1.10090
Cl898      Cl  0.77530775  0.02831453  0.51819873    -0.87220
C899        C  0.73105835  0.00341047  0.41172092     0.95110
C900        C  0.71900443  0.12648150  0.51031935     0.94910
N901        N  0.17760311  0.99602203  0.50746526    -0.07370
N902        N  0.15044670  0.98139270  0.50587170    -0.59490
N903        N  0.21370771  0.02990709  0.56240137    -0.07050
N904        N  0.21153737  0.03380928  0.59268442    -0.61620
N905        N  0.19423536  0.04843710  0.54708253    -0.06650
N906        N  0.17889544  0.06556048  0.56615203    -0.59470
N907        N  0.19820017  0.97801982  0.52136800    -0.06330
N908        N  0.18542282  0.95072747  0.52994997    -0.61970
C909        C  0.15548805  0.95327187  0.52032003     0.94800
C910        C  0.18960198  0.05618025  0.59456338     0.94580
N911        N  0.29988336  0.03509492  0.54280555    -0.07560
N912        N  0.30975005  0.05518113  0.56411664    -0.60070
N913        N  0.26830136  0.96647695  0.50940517    -0.05680
N914        N  0.25989446  0.93720357  0.50488297    -0.61320
N915        N  0.28848315  0.97814555  0.48778515    -0.07590
N916        N  0.29318188  0.95534983  0.46735743    -0.60340
N917        N  0.28206958  0.01377091  0.55798247    -0.05320
N918        N  0.28072360  0.01736112  0.58834716    -0.61410
Mn919      Mn  0.24109999  0.99630024  0.53789351     1.18440
C920        C  0.29782964  0.04299969  0.59280111     0.96880
C921        C  0.27526170  0.92944782  0.47875295     0.97550
N922        N  0.18674328  0.09525552  0.49038093    -0.07610
N923        N  0.16100122  0.11195968  0.48830007    -0.63920
N924        N  0.20248764  0.05267415  0.43024126    -0.06410
N925        N  0.19565254  0.04814440  0.40097679    -0.64590
N926        N  0.18129762  0.03961191  0.44942389    -0.07120
N927        N  0.15955322  0.02558757  0.43375180    -0.64180
N928        N  0.20865804  0.10787407  0.47158692    -0.06010
N929        N  0.19836992  0.13328521  0.45677026    -0.64870
Mn930      Mn  0.18415092  0.04494461  0.49888419     1.10660
C931        C  0.16851210  0.13533864  0.46689671     0.98110
C932        C  0.16857989  0.03137111  0.40336892     0.98180
N933        N  0.29188890  0.03454369  0.43191850    -0.07120
N934        N  0.30079427  0.01782087  0.40738073    -0.62500
N935        N  0.27818668  0.10377660  0.46489580    -0.06440
N936        N  0.27482094  0.13391599  0.46628061    -0.59230
N937        N  0.29776199  0.09178843  0.48562065    -0.07750
N938        N  0.30715511  0.11598193  0.50286393    -0.62060
N939        N  0.27091993  0.05434575  0.42141564    -0.06740
N940        N  0.26559630  0.05293017  0.39157328    -0.59250
Mn941      Mn  0.29827357  0.03468433  0.48709482     1.20190
Mn942      Mn  0.24065526  0.07933271  0.44741109     1.10090
Cl943      Cl  0.24147953  0.03869773  0.49281633    -0.87220
C944        C  0.28389070  0.03044761  0.38225765     0.95110
C945        C  0.29273498  0.14257345  0.48947665     0.94910
N946        N  0.95506495  0.19004722  0.51616226    -0.07370
N947        N  0.93918262  0.17072532  0.53590807    -0.59490
N948        N  0.96026777  0.21466758  0.44183647    -0.07050
N949        N  0.95118884  0.21631095  0.41276027    -0.61620
N950        N  0.97811970  0.19069162  0.44787938    -0.06650
N951        N  0.98271469  0.17548673  0.42223253    -0.59470
N952        N  0.93877650  0.21513810  0.50950812    -0.06330
N953        N  0.91260168  0.21460787  0.52575361    -0.61970
C954        C  0.91224579  0.18637140  0.54099991     0.94800
C955        C  0.96539741  0.19203949  0.40097189     0.94580
N956        N  0.99241897  0.30359189  0.44368226    -0.07560
N957        N  0.00719243  0.31052361  0.41576780    -0.60070
N958        N  0.93585433  0.28143571  0.50139022    -0.05680
N959        N  0.90602460  0.27913834  0.50858689    -0.61320
N960        N  0.95044821  0.30539017  0.51251518    -0.07590
N961        N  0.92800091  0.32071169  0.52852242    -0.60340
N962        N  0.96861544  0.28441942  0.43847580    -0.05320
N963        N  0.96636163  0.27921642  0.40862143    -0.61410
Mn964      Mn  0.95088322  0.24924096  0.47279755     1.18440
C965        C  0.98981475  0.29530050  0.39369991     0.96880
C966        C  0.90022719  0.30294450  0.52572380     0.97550
N967        N  0.04459176  0.18790114  0.46912594    -0.07610
N968        N  0.05171254  0.17494775  0.44275319    -0.63920
N969        N  0.04533399  0.20358516  0.54380696    -0.06410
N970        N  0.04889040  0.20617895  0.57391946    -0.64590
N971        N  0.02225213  0.18399824  0.53838784    -0.07120
N972        N  0.00871044  0.17387694  0.56507382    -0.64180
N973        N  0.06542774  0.20952764  0.47520718    -0.06010
N974        N  0.08734515  0.21174494  0.45313893    -0.64870
Mn975      Mn  0.00001107  0.18596657  0.49313698     1.10660
C976        C  0.07848879  0.19008448  0.43287107     0.98110
C977        C  0.02578884  0.18809481  0.58677433     0.98180
N978        N  0.02179078  0.29625829  0.54697102    -0.07120
N979        N  0.01210630  0.30488332  0.57518609    -0.62500
N980        N  0.06903944  0.27780825  0.47634277    -0.06440
N981        N  0.09959456  0.27673611  0.47200583    -0.59230
N982        N  0.06015698  0.30507594  0.48533176    -0.07750
N983        N  0.08634238  0.32060969  0.49361400    -0.62060
N984        N  0.04318272  0.27428075  0.55034898    -0.06740
N985        N  0.04813959  0.26810615  0.58059642    -0.59250
Mn986      Mn  0.00584982  0.30616441  0.49728422     1.20190
Mn987      Mn  0.05699304  0.24182013  0.51160526     1.10090
Cl988      Cl  0.00330559  0.24595800  0.49423070    -0.87220
C989        C  0.02905015  0.28703140  0.59636435     0.95110
C990        C  0.11108691  0.30234111  0.48431318     0.94910
N991        N  0.97619853  0.98454238  0.32912418    -0.07370
N992        N  0.95713445  0.96391070  0.34432043    -0.59490
N993        N  0.03923801  0.02937623  0.31286964    -0.07050
N994        N  0.06743501  0.03890285  0.31947089    -0.61620
N995        N  0.01809574  0.04355503  0.32905298    -0.06650
N996        N  0.03148441  0.06245254  0.34856902    -0.59470
N997        N  0.99522034  0.97068229  0.31046209    -0.06330
N998        N  0.98865825  0.94086246  0.31054282    -0.61970
C999        C  0.96557301  0.93653705  0.33233615     0.94800
C1000       C  0.06252128  0.05921589  0.34180836     0.94580
N1001       N  0.05652651  0.02374826  0.22110406    -0.07560
N1002       N  0.08470259  0.02744299  0.20638315    -0.60070
N1003       N  0.02105348  0.95967335  0.24827268    -0.05680
N1004       N  0.02579612  0.92976872  0.25433759    -0.61320
N1005       N  0.00864601  0.96552563  0.22069704    -0.07590
N1006       N  0.00420605  0.93812923  0.20728208    -0.60340
N1007       N  0.06203466  0.01649666  0.25073821    -0.05320
N1008       N  0.09193643  0.01558341  0.25724667    -0.61410
Mn1009     Mn  0.02934382  0.99420544  0.28101153     1.18440
C1010       C  0.10646291  0.02238384  0.22996067     0.96880
C1011       C  0.01547498  0.91610412  0.22899044     0.97550
N1012       N  0.96395696  0.08144518  0.30418701    -0.07610
N1013       N  0.97285040  0.10477994  0.32063186    -0.63920
N1014       N  0.91304054  0.03442448  0.27677351    -0.06410
N1015       N  0.88264254  0.03355987  0.28265751    -0.64590
N1016       N  0.92695387  0.02020477  0.30055554    -0.07120
N1017       N  0.90700506  0.00621662  0.32011694    -0.64180
N1018       N  0.95326718  0.09180780  0.27699215    -0.06010
N1019       N  0.95443915  0.12250626  0.27418021    -0.64870
Mn1020     Mn  0.97060650  0.03324577  0.31754375     1.10660
C1021       C  0.96731023  0.12982406  0.30125990     0.98110
C1022       C  0.87930257  0.01503291  0.30920366     0.98180
N1023       N  0.94559616  0.00942141  0.20615235    -0.07120
N1024       N  0.92398677  0.98747535  0.21711573    -0.62500
N1025       N  0.97080054  0.08713585  0.20920797    -0.06440
N1026       N  0.97093783  0.11757352  0.21109386    -0.59230
N1027       N  0.99901614  0.07592334  0.20465431    -0.07750
N1028       N  0.01941650  0.10061888  0.20590301    -0.62060
N1029       N  0.92994660  0.03518007  0.20151970    -0.06740
N1030       N  0.89948865  0.03016260  0.20155116    -0.59250
Mn1031     Mn  0.00247838  0.01880807  0.20909391     1.20190
Mn1032     Mn  0.94081711  0.06214638  0.24092525     1.10090
Cl1033     Cl  0.98649421  0.02726429  0.26171051    -0.87220
C1034       C  0.89451476  0.00131112  0.21387385     0.95110
C1035       C  0.00093130  0.12692593  0.20939006     0.94910
N1036       N  0.04925719  0.06566462  0.67553287    -0.07370
N1037       N  0.07828057  0.06475130  0.66596261    -0.59490
N1038       N  0.98174283  0.09911114  0.68120967    -0.07050
N1039       N  0.96711538  0.12426928  0.67020961    -0.61620
N1040       N  0.99913192  0.10636289  0.70465926    -0.06650
N1041       N  0.99519176  0.13530021  0.71163486    -0.59470
N1042       N  0.03019107  0.05562767  0.65443692    -0.06330
N1043       N  0.04584423  0.04715824  0.62939071    -0.61970
C1044       C  0.07573588  0.05325902  0.63766568     0.94800
C1045       C  0.97699497  0.14719537  0.68904350     0.94580
N1046       N  0.93014235  0.02428102  0.70927554    -0.07560
N1047       N  0.90390305  0.03112334  0.72341158    -0.60070
N1048       N  0.98308947  0.00190930  0.65812335    -0.05680
N1049       N  0.98820920  0.98964526  0.63098498    -0.61320
N1050       N  0.97703988  0.97999119  0.68017703    -0.07590
N1051       N  0.97749039  0.95203882  0.66864911    -0.60340
N1052       N  0.93639165  0.04483886  0.68613524    -0.05320
N1053       N  0.91392678  0.06525087  0.68330108    -0.61410
Mn1054     Mn  0.98226615  0.05066485  0.66784439     1.18440
C1055       C  0.89348148  0.05575928  0.70647398     0.96880
C1056       C  0.98448970  0.95873155  0.63812239     0.97550
N1057       N  0.02918003  0.09505788  0.76486609    -0.07610
N1058       N  0.03067548  0.12529061  0.76653753    -0.63920
N1059       N  0.06696690  0.03159151  0.76489153    -0.06410
N1060       N  0.09552741  0.02045013  0.77257344    -0.64590
N1061       N  0.07160182  0.05104653  0.74019266    -0.07120
N1062       N  0.10104090  0.05417456  0.73103960    -0.64180
N1063       N  0.01123442  0.08093298  0.78656283    -0.06010
N1064       N  0.99807556  0.10365620  0.80302652    -0.64870
Mn1065     Mn  0.03721138  0.07911736  0.72096747     1.10660
C1066       C  0.01125930  0.13141682  0.78969853     0.98110
C1067       C  0.11639366  0.03519836  0.75074618     0.98180
N1068       N  0.99757674  0.96339394  0.74720979    -0.07120
N1069       N  0.99875883  0.93356851  0.74269723    -0.62500
N1070       N  0.95625476  0.02145072  0.78880790    -0.06440
N1071       N  0.93125112  0.03755565  0.79921148    -0.59230
N1072       N  0.94485126  0.99817101  0.77344988    -0.07750
N1073       N  0.91413292  0.99593454  0.77584028    -0.62060
N1074       N  0.01352061  0.97161081  0.77174295    -0.06740
N1075       N  0.02578184  0.94530071  0.78497776    -0.59250
Mn1076     Mn  0.96263563  0.99070271  0.72717453     1.20190
Mn1077     Mn  0.01216276  0.02605564  0.78154356     1.10090
Cl1078     Cl  0.99920596  0.03598028  0.72470585    -0.87220
C1079       C  0.01586759  0.92172708  0.76613728     0.95110
C1080       C  0.90450759  0.02058878  0.79103643     0.94910
C1081       C  0.00196487  0.28223370  0.23687230    -0.00690
C1082       C  0.00383668  0.25713334  0.25976983    -0.00690
C1083       C  0.74284440  0.98725567  0.25296880    -0.00690
C1084       C  0.76520282  0.98449605  0.27707457    -0.00690
C1085       C  0.02145778  0.75968150  0.24115066    -0.00690
C1086       C  0.01998355  0.78066982  0.26559689    -0.00690
C1087       C  0.26854465  0.02774447  0.23234386    -0.00690
C1088       C  0.24171981  0.02377334  0.25253909    -0.00690
C1089       C  0.26476450  0.29168144  0.52859597    -0.00690
C1090       C  0.24349772  0.26946333  0.51640754    -0.00690
C1091       C  0.74165741  0.28219295  0.52683826    -0.00690
C1092       C  0.76659782  0.26066964  0.52876132    -0.00690
C1093       C  0.26584107  0.77308702  0.46555924    -0.00690
C1094       C  0.24085959  0.79459070  0.46035211    -0.00690
C1095       C  0.27314685  0.03237930  0.74843567    -0.00690
C1096       C  0.25442027  0.04322289  0.72284114    -0.00690
C1097       C  0.23239284  0.28960699  0.96668411    -0.00690
C1098       C  0.25745939  0.26864238  0.96508326    -0.00690
C1099       C  0.24755111  0.76496367  0.02244003    -0.00690
C1100       C  0.27504621  0.78349590  0.02586599    -0.00690
C1101       C  0.51026396  0.75201905  0.27220959    -0.00690
C1102       C  0.50692728  0.77555022  0.24843414    -0.00690
C1103       C  0.47128089  0.25333705  0.24349117    -0.00690
C1104       C  0.47140224  0.27454461  0.26834813    -0.00690
C1105       C  0.49396592  0.29151608  0.74034077    -0.00690
C1106       C  0.48292023  0.26735050  0.76247084    -0.00690
C1107       C  0.01523629  0.28607735  0.75833848    -0.00690
C1108       C  0.01504429  0.26091613  0.73772141    -0.00690
C1109       C  0.75644830  0.29037111  0.02675230    -0.00690
C1110       C  0.73264597  0.26697854  0.02442260    -0.00690
C1111       C  0.26570202  0.55956442  0.26074222    -0.00690
C1112       C  0.23973552  0.55675695  0.24064680    -0.00690
C1113       C  0.74140888  0.52067054  0.27035993    -0.00690
C1114       C  0.76474360  0.51288743  0.24842998    -0.00690
C1115       C  0.28732705  0.49623965  0.73462579    -0.00690
C1116       C  0.26121370  0.49701409  0.75559937    -0.00690
C1117       C  0.01745896  0.76547498  0.76566375    -0.00690
C1118       C  0.01655984  0.78842316  0.74065794    -0.00690
C1119       C  0.74802564  0.05271854  0.77615719    -0.00690
C1120       C  0.76928788  0.04637999  0.75151162    -0.00690
C1121       C  0.77797690  0.76709783  0.01352454    -0.00690
C1122       C  0.75265334  0.78826814  0.01237137    -0.00690
C1123       C  0.76134476  0.56311477  0.74789039    -0.00690
C1124       C  0.78356145  0.56518078  0.77205081    -0.00690
C1125       C  0.73967437  0.75749189  0.51492509    -0.00690
C1126       C  0.76454978  0.77990732  0.51048765    -0.00690
C1127       C  0.52273479  0.77309337  0.74274731    -0.00690
C1128       C  0.52781506  0.79859911  0.76224884    -0.00690
C1129       C  0.82636769  0.06595266  0.76995805    -0.03100
C1130       C  0.80558061  0.04145384  0.75975789     0.06580
C1131       C  0.81851854  0.01088252  0.76354703    -0.03220
C1132       C  0.84737784  0.00493374  0.77952936    -0.03220
C1133       C  0.86909666  0.02927019  0.78678987     0.06710
C1134       C  0.85751022  0.06001088  0.78217315    -0.03420
Br1135     Br  0.88424240  0.09419346  0.79349822    -0.01960
Br1136     Br  0.81484087  0.10893352  0.76498474    -0.02030
Br1137     Br  0.85569020  0.96197410  0.79364693    -0.01990
Br1138     Br  0.79937826  0.97559386  0.74484501    -0.01980
C1139       C  0.98036118  0.17742851  0.76991080    -0.03100
C1140       C  0.00342918  0.16573689  0.79051710     0.06580
C1141       C  0.02962540  0.18567075  0.79441601    -0.05140
C1142       C  0.03537065  0.21347105  0.77479383    -0.03220
C1143       C  0.01243518  0.22598879  0.75313351     0.06710
C1144       C  0.98461594  0.20642895  0.75152691    -0.03420
Br1145     Br  0.95117162  0.21690859  0.72399508    -0.01960
Br1146     Br  0.94290082  0.15184618  0.76636273    -0.02030
Br1147     Br  0.07769767  0.22951028  0.77560122    -0.01990
Br1148     Br  0.06025924  0.17122195  0.82475426    -0.01980
C1149       C  0.16755909  0.01077302  0.73243357    -0.03100
C1150       C  0.15197326  0.03515264  0.74716783     0.06580
C1151       C  0.16945832  0.06348741  0.75060656    -0.03220
C1152       C  0.20198832  0.06648802  0.74168058    -0.03220
C1153       C  0.21824836  0.04142306  0.72835149     0.06710
C1154       C  0.20031209  0.01345824  0.72404786    -0.03420
Br1155     Br  0.22075854  0.97713335  0.70978783    -0.01960
Br1156     Br  0.14394924  0.97301732  0.72508535    -0.02030
Br1157     Br  0.22517003  0.10440196  0.74999668    -0.01990
Br1158     Br  0.14920120  0.09783496  0.76994783    -0.01980
C1159       C  0.04496183  0.83764122  0.76266754    -0.03100
C1160       C  0.01804020  0.82320604  0.74886899     0.06580
C1161       C  0.99088053  0.84158652  0.74591429    -0.03220
C1162       C  0.98897029  0.87036665  0.76048779    -0.03220
C1163       C  0.01640524  0.88639944  0.77012178     0.06710
C1164       C  0.04446817  0.86948336  0.77143260    -0.03420
Br1165     Br  0.08230087  0.89061310  0.78394112    -0.01960
Br1166     Br  0.08445236  0.81658863  0.76576207    -0.02030
Br1167     Br  0.94794936  0.88815498  0.76704954    -0.01990
Br1168     Br  0.95696972  0.82999185  0.71911586    -0.01980
C1169       C  0.15580455  0.99092154  0.24296043    -0.03100
C1170       C  0.14156662  0.01830531  0.22853539     0.06580
C1171       C  0.16225331  0.04251995  0.21728158    -0.03220
C1172       C  0.19422000  0.03531442  0.21422440    -0.03220
C1173       C  0.20812041  0.01700562  0.23903436     0.06710
C1174       C  0.18920992  0.99020947  0.24786465    -0.03420
Br1175     Br  0.20936630  0.95125862  0.25927630    -0.01960
Br1176     Br  0.13034949  0.95434314  0.25510352    -0.02030
Br1177     Br  0.19210864  0.01329346  0.17557105    -0.01990
Br1178     Br  0.14715324  0.08031940  0.19693313    -0.01980
C1179       C  0.98892276  0.86586326  0.24744639    -0.03100
C1180       C  0.01375829  0.88090442  0.23014106     0.06580
C1181       C  0.04169977  0.86408735  0.22656762    -0.03220
C1182       C  0.04478451  0.83293079  0.23986000    -0.03220
C1183       C  0.01932714  0.81669875  0.25659908     0.06710
C1184       C  0.99159942  0.83468830  0.26057654    -0.03420
Br1185     Br  0.95522278  0.81765268  0.28216442    -0.01960
Br1186     Br  0.95107992  0.88939727  0.25406176    -0.02030
Br1187     Br  0.08596422  0.81546357  0.23761790    -0.01990
Br1188     Br  0.07675179  0.88524447  0.20451679    -0.01980
C1189       C  0.84890478  0.96382461  0.23861787    -0.03100
C1190       C  0.86172972  0.99413872  0.23066047     0.06580
C1191       C  0.84179046  0.01946892  0.23932389    -0.03220
C1192       C  0.81669143  0.01438571  0.26171691    -0.03220
C1193       C  0.80113429  0.98513076  0.26644290     0.06710
C1194       C  0.81801185  0.95952937  0.25352659    -0.03420
Br1195     Br  0.80053504  0.91786773  0.25598844    -0.01960
Br1196     Br  0.87222391  0.92830572  0.22583822    -0.02030
Br1197     Br  0.80699914  0.04749940  0.28897387    -0.01990
Br1198     Br  0.84933700  0.06332924  0.22568388    -0.01980
C1199       C  0.98395505  0.18350899  0.21109949    -0.03100
C1200       C  0.00763859  0.16121867  0.21822660     0.06580
C1201       C  0.03076317  0.17077297  0.23944282    -0.03220
C1202       C  0.02884768  0.20042358  0.25448792    -0.03220
C1203       C  0.00349316  0.22196477  0.24894271     0.06710
C1204       C  0.98016557  0.21119733  0.22793837    -0.03420
Br1205     Br  0.94055097  0.23211172  0.22249542    -0.01960
Br1206     Br  0.95731518  0.17750172  0.17531650    -0.02030
Br1207     Br  0.06237447  0.21131761  0.28178452    -0.01990
Br1208     Br  0.06667629  0.14430398  0.24518580    -0.01980
C1209       C  0.05078674  0.27423278  0.65113590    -0.03100
C1210       C  0.02517494  0.28390447  0.63241002     0.06580
C1211       C  0.99610610  0.28725084  0.64834676    -0.03220
C1212       C  0.99261268  0.28025223  0.68162417    -0.03220
C1213       C  0.01781183  0.26786643  0.70070549     0.06710
C1214       C  0.04689698  0.26468268  0.68365868    -0.03420
Br1215     Br  0.08319304  0.24652440  0.70258003    -0.01960
Br1216     Br  0.09290274  0.27708245  0.63272319    -0.02030
Br1217     Br  0.95163047  0.28774216  0.69849818    -0.01990
Br1218     Br  0.96031389  0.30155774  0.62435331    -0.01980
C1219       C  0.84529386  0.31173285  0.50820090    -0.03100
C1220       C  0.86524287  0.30593910  0.53397056     0.06580
C1221       C  0.85218230  0.28575745  0.55840986    -0.03220
C1222       C  0.82159708  0.27071420  0.55653093    -0.03220
C1223       C  0.80219848  0.27415514  0.52932227     0.06710
C1224       C  0.81602776  0.29493051  0.50469650    -0.03420
Br1225     Br  0.79956969  0.29815345  0.46296328    -0.01960
Br1226     Br  0.86107887  0.34112752  0.47532271    -0.02030
Br1227     Br  0.80728594  0.24554264  0.59247858    -0.01990
Br1228     Br  0.87785061  0.27848688  0.59478197    -0.01980
C1229       C  0.20178558  0.30490559  0.48619678    -0.03100
C1230       C  0.20904101  0.27833086  0.50684963     0.06580
C1231       C  0.18234738  0.26141149  0.52002315    -0.03220
C1232       C  0.15127157  0.27322756  0.51702789    -0.03220
C1233       C  0.14436846  0.29969163  0.49687302     0.06710
C1234       C  0.17011771  0.31465236  0.48079227    -0.03420
Br1235     Br  0.16135441  0.34825021  0.45029015    -0.01960
Br1236     Br  0.23426118  0.32848112  0.46361513    -0.02030
Br1237     Br  0.11741545  0.25251816  0.54119574    -0.01990
Br1238     Br  0.18668395  0.22147557  0.54240250    -0.01980
C1239       C  0.96985740  0.27784122  0.34129107    -0.03100
C1240       C  0.99556128  0.28964958  0.35848000     0.06580
C1241       C  0.02520426  0.29059416  0.34258378    -0.03220
C1242       C  0.02848222  0.28049612  0.31086767    -0.03220
C1243       C  0.00310177  0.26517484  0.29534660     0.06710
C1244       C  0.97434590  0.26288751  0.31262507    -0.03420
Br1245     Br  0.93928775  0.24014676  0.29730794    -0.01960
Br1246     Br  0.92675444  0.28536150  0.35443582    -0.02030
Br1247     Br  0.06838108  0.28814311  0.28961221    -0.01990
Br1248     Br  0.06142324  0.30579412  0.36406254    -0.01980
C1249       C  0.93788902  0.18313616  0.35237378    -0.03100
C1250       C  0.96609734  0.18807269  0.36810811     0.06580
C1251       C  0.99528110  0.18602772  0.35299836    -0.03220
C1252       C  0.99688693  0.16864521  0.32673476    -0.03220
C1253       C  0.96870220  0.16035772  0.31229970     0.06710
C1254       C  0.93956781  0.17109177  0.32277690    -0.03420
Br1255     Br  0.90169056  0.16427835  0.29942753    -0.01960
Br1256     Br  0.89744712  0.18976710  0.37201109    -0.02030
Br1257     Br  0.03491755  0.14573864  0.32016442    -0.01990
Br1258     Br  0.03277666  0.20414204  0.36972462    -0.01980
C1259       C  0.98206400  0.19979330  0.62264901    -0.03100
C1260       C  0.01401675  0.19331396  0.61782547     0.06580
C1261       C  0.03399917  0.18968226  0.64333045    -0.03220
C1262       C  0.02040382  0.18352254  0.67293523    -0.03220
C1263       C  0.98724512  0.17749108  0.67481236     0.06710
C1264       C  0.96812498  0.19049978  0.65142067    -0.03420
Br1265     Br  0.92319150  0.18777276  0.65644915    -0.01960
Br1266     Br  0.95828463  0.22142864  0.59069898    -0.02030
Br1267     Br  0.04874630  0.17489532  0.70735373    -0.01990
Br1268     Br  0.07919710  0.18859892  0.63728326    -0.01980
C1269       C  0.26457759  0.07158572  0.63190481    -0.03100
C1270       C  0.29352417  0.05770918  0.62434705     0.06580
C1271       C  0.31173337  0.04834848  0.65028930    -0.03220
C1272       C  0.30137873  0.05491785  0.68109972    -0.03220
C1273       C  0.26857489  0.05435737  0.68882980     0.06710
C1274       C  0.25109035  0.06835740  0.66327759    -0.03420
Br1275     Br  0.21278162  0.08977351  0.67083635    -0.01960
Br1276     Br  0.24823547  0.10025991  0.60035467    -0.02030
Br1277     Br  0.32332993  0.09140821  0.69440765    -0.01990
Br1278     Br  0.35395145  0.03500317  0.64323717    -0.01980
C1279       C  0.28210309  0.18555278  0.52962817    -0.03100
C1280       C  0.28826627  0.17673026  0.49873409     0.06580
C1281       C  0.27995939  0.19904521  0.47420972    -0.03220
C1282       C  0.26182175  0.22604285  0.47980757    -0.03220
C1283       C  0.25582744  0.23555465  0.51071336     0.06710
C1284       C  0.26624561  0.21425343  0.53563187    -0.03420
Br1285     Br  0.25546565  0.22147821  0.57859831    -0.01960
Br1286     Br  0.29695754  0.15890155  0.56372157    -0.02030
Br1287     Br  0.24437274  0.24882909  0.44393222    -0.01990
Br1288     Br  0.29525107  0.19364583  0.43182514    -0.01980
C1289       C  0.28768427  0.87651189  0.45128453    -0.03100
C1290       C  0.26636466  0.89786123  0.46389347     0.06580
C1291       C  0.23427890  0.88767112  0.46374597    -0.03220
C1292       C  0.22507703  0.85565786  0.45887163    -0.03220
C1293       C  0.24766987  0.83185303  0.45434744     0.06710
C1294       C  0.27730485  0.84554915  0.44329825    -0.03420
Br1295     Br  0.29720218  0.82870254  0.40724232    -0.01960
Br1296     Br  0.33064024  0.88973729  0.44348289    -0.02030
Br1297     Br  0.18290098  0.84897199  0.44567088    -0.01990
Br1298     Br  0.20272317  0.91958547  0.46355301    -0.01980
C1299       C  0.28500273  0.04808112  0.32636494    -0.03100
C1300       C  0.27988369  0.02246365  0.34850427     0.06580
C1301       C  0.25537924  0.00111592  0.34156349    -0.03220
C1302       C  0.23731153  0.00514046  0.31352152    -0.03220
C1303       C  0.24680503  0.02743217  0.28881248     0.06710
C1304       C  0.26682603  0.05176606  0.29876962    -0.03420
Br1305     Br  0.26469655  0.09260871  0.27794349    -0.01960
Br1306     Br  0.31525545  0.08044967  0.33569610    -0.02030
Br1307     Br  0.19322191  0.99511304  0.31941452    -0.01990
Br1308     Br  0.24291442  0.96933159  0.37346397    -0.01980
C1309       C  0.15053569  0.18006647  0.43322670    -0.03100
C1310       C  0.14559496  0.14901103  0.44528248     0.06580
C1311       C  0.12166032  0.13027943  0.43219503    -0.03220
C1312       C  0.10011082  0.14495307  0.41185514    -0.03220
C1313       C  0.10048226  0.17771663  0.40985320     0.06710
C1314       C  0.12995767  0.19256349  0.41067928    -0.03420
Br1315     Br  0.13423250  0.23524028  0.39423691    -0.01960
Br1316     Br  0.17918365  0.20707036  0.45331591    -0.02030
Br1317     Br  0.06337621  0.12290850  0.39818155    -0.01990
Br1318     Br  0.11594096  0.08623114  0.44320324    -0.01980
C1319       C  0.11654770  0.01773191  0.38771466    -0.03100
C1320       C  0.14454382  0.03415882  0.37968652     0.06580
C1321       C  0.14393176  0.06191678  0.36011481    -0.03220
C1322       C  0.11496484  0.07517829  0.35288194    -0.03220
C1323       C  0.08700375  0.06030359  0.36427414     0.06710
C1324       C  0.08801887  0.03267458  0.38377205    -0.03420
Br1325     Br  0.04990867  0.01237351  0.40061345    -0.01960
Br1326     Br  0.11819264  0.97541679  0.40584449    -0.02030
Br1327     Br  0.11301308  0.11178281  0.32446019    -0.01990
Br1328     Br  0.18189280  0.08103546  0.34138841    -0.01980
C1329       C  0.12211077  0.02515880  0.62937001    -0.03100
C1330       C  0.10359041  0.05060934  0.61961365     0.06580
C1331       C  0.11737954  0.08005419  0.61187547    -0.03220
C1332       C  0.14921285  0.08475059  0.61735251    -0.03220
C1333       C  0.16821127  0.05816945  0.62075762     0.06710
C1334       C  0.15458909  0.02903721  0.63085271    -0.03420
Br1335     Br  0.17991298  0.99303230  0.64137989    -0.01960
Br1336     Br  0.10253448  0.98621542  0.64426801    -0.02030
Br1337     Br  0.16800756  0.12586400  0.60920546    -0.01990
Br1338     Br  0.09121061  0.11464129  0.59850515    -0.01980
C1339       C  0.74660207  0.18030081  0.49345128    -0.03100
C1340       C  0.72928806  0.16124089  0.51710200     0.06580
C1341       C  0.72492913  0.17595516  0.54592576    -0.03220
C1342       C  0.73753699  0.20719865  0.55076299    -0.03220
C1343       C  0.75769353  0.22434511  0.52798175     0.06710
C1344       C  0.76365987  0.20813704  0.50054396    -0.03420
Br1345     Br  0.79546073  0.22390189  0.47117448    -0.01960
Br1346     Br  0.74576535  0.17196324  0.44900834    -0.02030
Br1347     Br  0.72966991  0.22416719  0.59086568    -0.01990
Br1348     Br  0.69963152  0.15418343  0.57821753    -0.01980
C1349       C  0.72448661  0.01573784  0.35403960    -0.03100
C1350       C  0.73034115  0.99268390  0.37802882     0.06580
C1351       C  0.74599557  0.96575402  0.36878341    -0.03220
C1352       C  0.75678721  0.96260702  0.33685404    -0.03220
C1353       C  0.75395223  0.98736250  0.31270327     0.06710
C1354       C  0.73707279  0.01418408  0.32287453    -0.03420
Br1355     Br  0.73226698  0.05196901  0.29691246    -0.01960
Br1356     Br  0.69891612  0.05081537  0.36509254    -0.02030
Br1357     Br  0.77379527  0.92277857  0.32790989    -0.01990
Br1358     Br  0.75186874  0.93274510  0.40065117    -0.01980
C1359       C  0.74142834  0.06339306  0.66303168    -0.03100
C1360       C  0.72308111  0.03672514  0.65655829     0.06580
C1361       C  0.71846701  0.01418792  0.68180011    -0.03220
C1362       C  0.73411631  0.01617830  0.71121513    -0.03220
C1363       C  0.75512236  0.04191665  0.71756849     0.06710
C1364       C  0.75646574  0.06632256  0.69286968    -0.03420
Br1365     Br  0.77687742  0.10560593  0.69922797    -0.01960
Br1366     Br  0.74506717  0.09650163  0.63051033    -0.02030
Br1367     Br  0.72494656  0.98213157  0.74165224    -0.01990
Br1368     Br  0.69003665  0.97940954  0.67499880    -0.01980
C1369       C  0.77588066  0.87183795  0.49305826    -0.03100
C1370       C  0.74845571  0.88256664  0.50862487     0.06580
C1371       C  0.72685931  0.85956557  0.52023649    -0.03220
C1372       C  0.72826515  0.83049613  0.50682968    -0.03220
C1373       C  0.75842005  0.81634230  0.50378931     0.06710
C1374       C  0.78165468  0.83875808  0.49177425    -0.03420
Br1375     Br  0.81682372  0.82573929  0.46713739    -0.01960
Br1376     Br  0.80275814  0.90226764  0.47083826    -0.02030
Br1377     Br  0.70890796  0.84295292  0.46694475    -0.01990
Br1378     Br  0.68984893  0.87055173  0.54325589    -0.01980
C1379       C  0.85864897  0.17917213  0.55988743    -0.03100
C1380       C  0.88240878  0.17126478  0.53864062     0.06580
C1381       C  0.87489905  0.16407547  0.50758583    -0.03220
C1382       C  0.84421666  0.16769824  0.49779459    -0.03220
C1383       C  0.82074915  0.16639652  0.52148087     0.06710
C1384       C  0.82727963  0.17578570  0.55157265    -0.03420
Br1385     Br  0.79492124  0.16994145  0.58357944    -0.01960
Br1386     Br  0.86926549  0.19427459  0.59979062    -0.02030
Br1387     Br  0.83456875  0.15957119  0.45448177    -0.01990
Br1388     Br  0.90631243  0.15126326  0.47749770    -0.01980
C1389       C  0.86379795  0.04887537  0.34843265    -0.03100
C1390       C  0.85740549  0.02060433  0.33390565     0.06580
C1391       C  0.84879739  0.99340630  0.35208098    -0.03220
C1392       C  0.84931327  0.99370640  0.38463881    -0.03220
C1393       C  0.86006293  0.02069595  0.39871398     0.06710
C1394       C  0.86864429  0.04785559  0.38059777    -0.03420
Br1395     Br  0.88398018  0.08455126  0.40076544    -0.01960
Br1396     Br  0.87250599  0.08755728  0.32416698    -0.02030
Br1397     Br  0.83415662  0.95783755  0.41000794    -0.01990
Br1398     Br  0.84521935  0.95425639  0.33237060    -0.01980
C1399       C  0.84491482  0.03087629  0.69250640    -0.03100
C1400       C  0.86083562  0.05856290  0.70086226     0.06580
C1401       C  0.85230511  0.08798362  0.68824519    -0.03220
C1402       C  0.83604147  0.08879356  0.66025146    -0.03220
C1403       C  0.82131496  0.06134292  0.65091774     0.06710
C1404       C  0.82126162  0.03359604  0.67094855    -0.03420
Br1405     Br  0.79622198  0.99553004  0.66532243    -0.01960
Br1406     Br  0.86241970  0.98870896  0.69758291    -0.02030
Br1407     Br  0.83534695  0.12665212  0.63477025    -0.01990
Br1408     Br  0.87239279  0.12543093  0.70264654    -0.01980
C1409       C  0.19724750  0.76806069  0.49752171    -0.03100
C1410       C  0.20654604  0.77998359  0.46671804     0.06580
C1411       C  0.18490023  0.77250262  0.44248985    -0.03220
C1412       C  0.15644330  0.75399875  0.44920103    -0.03220
C1413       C  0.14683403  0.74400842  0.48021435     0.06710
C1414       C  0.16910159  0.74980253  0.50371731    -0.03420
Br1415     Br  0.16081959  0.73166185  0.54571044    -0.01960
Br1416     Br  0.22040729  0.77963131  0.53339045    -0.02030
Br1417     Br  0.13320806  0.73775837  0.41559683    -0.01990
Br1418     Br  0.19169704  0.78986973  0.39998375    -0.01980
C1419       C  0.04101934  0.75671661  0.35458757    -0.03100
C1420       C  0.01843768  0.73291699  0.36318065     0.06580
C1421       C  0.99667763  0.72582412  0.33963982    -0.03220
C1422       C  0.99372130  0.74524630  0.31174381    -0.03220
C1423       C  0.01793187  0.76716381  0.30097259     0.06710
C1424       C  0.04218518  0.77180039  0.32350135    -0.03420
Br1425     Br  0.07861290  0.79740506  0.31295802    -0.01960
Br1426     Br  0.06914012  0.77054236  0.38588979    -0.02030
Br1427     Br  0.95296774  0.74395040  0.29294695    -0.01990
Br1428     Br  0.96957895  0.68893939  0.34585046    -0.01980
C1429       C  0.03655622  0.77905564  0.65125974    -0.03100
C1430       C  0.01144774  0.76058181  0.63973523     0.06580
C1431       C  0.98763364  0.75091794  0.66190894    -0.03220
C1432       C  0.98885699  0.75958292  0.69414919    -0.03220
C1433       C  0.01339286  0.77971297  0.70525271     0.06710
C1434       C  0.03570974  0.79096626  0.68182444    -0.03420
Br1435     Br  0.06499418  0.82454647  0.68927757    -0.01960
Br1436     Br  0.07466283  0.78651534  0.62603708    -0.02030
Br1437     Br  0.95376936  0.74682452  0.72120159    -0.01990
Br1438     Br  0.95261082  0.72662808  0.64761269    -0.01980
C1439       C  0.84885475  0.75912646  0.54252709    -0.03100
C1440       C  0.86128400  0.73975294  0.51952988     0.06580
C1441       C  0.84080218  0.73275270  0.49471442    -0.03220
C1442       C  0.81153400  0.74799665  0.49027944    -0.03220
C1443       C  0.79887204  0.76761809  0.51299222     0.06710
C1444       C  0.81828477  0.77298696  0.53927602    -0.03420
Br1445     Br  0.80348212  0.80044660  0.57047862    -0.01960
Br1446     Br  0.87430330  0.76691694  0.57830606    -0.02030
Br1447     Br  0.79162155  0.74583291  0.45017233    -0.01990
Br1448     Br  0.85415089  0.70280649  0.46505354    -0.01980
C1449       C  0.89355044  0.90596615  0.45452159    -0.03100
C1450       C  0.89182308  0.87510830  0.46705298     0.06580
C1451       C  0.87857831  0.86813077  0.49704566    -0.03220
C1452       C  0.86680774  0.89228344  0.51445314    -0.03220
C1453       C  0.87244094  0.92385471  0.50344926     0.06710
C1454       C  0.88755733  0.93041789  0.47387698    -0.03420
Br1455     Br  0.90518005  0.97100191  0.46030368    -0.01960
Br1456     Br  0.90939055  0.91452051  0.41214173    -0.02030
Br1457     Br  0.84767535  0.88121011  0.55528237    -0.01990
Br1458     Br  0.88253592  0.82696104  0.51712554    -0.01980
C1459       C  0.13877385  0.87212512  0.50712318    -0.03100
C1460       C  0.11820113  0.87676191  0.48106576     0.06580
C1461       C  0.10247904  0.90596071  0.47693841    -0.03220
C1462       C  0.10939080  0.92992833  0.49679045    -0.03220
C1463       C  0.13444490  0.92653997  0.51751732     0.06710
C1464       C  0.14590743  0.89687817  0.52576414    -0.03420
Br1465     Br  0.17093848  0.89014299  0.56311057    -0.01960
Br1466     Br  0.15760257  0.83232446  0.51940076    -0.02030
Br1467     Br  0.08354569  0.96692196  0.49702721    -0.01990
Br1468     Br  0.07076946  0.91524378  0.44567295    -0.01980
C1469       C  0.00518605  0.87058390  0.34178730    -0.03100
C1470       C  0.98384274  0.84510564  0.34494108     0.06580
C1471       C  0.95106446  0.85210914  0.34690143    -0.03220
C1472       C  0.94242853  0.88378356  0.34427541    -0.03220
C1473       C  0.96538217  0.90680095  0.34993568     0.06710
C1474       C  0.99615894  0.89737217  0.35599061    -0.03420
Br1475     Br  0.02737640  0.92617283  0.37101979    -0.01960
Br1476     Br  0.04809170  0.86640400  0.32809886    -0.02030
Br1477     Br  0.90113686  0.89530105  0.33095373    -0.01990
Br1478     Br  0.91801470  0.82070640  0.35382748    -0.01980
C1479       C  0.96353680  0.92824820  0.59575542    -0.03100
C1480       C  0.98856031  0.93567708  0.61515870     0.06580
C1481       C  0.01890075  0.92506688  0.60947956    -0.03220
C1482       C  0.02552173  0.91094427  0.58157816    -0.03220
C1483       C  0.00063462  0.90327518  0.56185076     0.06710
C1484       C  0.96952169  0.91082401  0.56955930    -0.03420
Br1485     Br  0.93528502  0.89413077  0.54679472    -0.01960
Br1486     Br  0.92117230  0.93971820  0.60677722    -0.02030
Br1487     Br  0.06861048  0.90163295  0.57083781    -0.01990
Br1488     Br  0.04988373  0.92618869  0.64173118    -0.01980
C1489       C  0.75642657  0.21791121  0.99496238    -0.03100
C1490       C  0.74262357  0.23148917  0.02242206     0.06580
C1491       C  0.74193659  0.21113690  0.04999940    -0.03220
C1492       C  0.75607287  0.18105004  0.05100373    -0.03220
C1493       C  0.76782363  0.16737069  0.02365923     0.06710
C1494       C  0.76855409  0.18659041  0.99585381    -0.03420
Br1495     Br  0.78477564  0.16858947  0.95832820    -0.01960
Br1496     Br  0.75568539  0.23790842  0.95364456    -0.02030
Br1497     Br  0.76022570  0.15824470  0.09114375    -0.01990
Br1498     Br  0.71838380  0.22171352  0.08661053    -0.01980
C1499       C  0.79985270  0.86738075  0.99424510    -0.03100
C1500       C  0.79090487  0.88766848  0.01773428     0.06580
C1501       C  0.76645080  0.87638901  0.03836388    -0.03220
C1502       C  0.75261530  0.84549723  0.03633690    -0.03220
C1503       C  0.76102106  0.82498436  0.01194364     0.06710
C1504       C  0.78240066  0.83946824  0.98899817    -0.03420
Br1505     Br  0.78012153  0.83001428  0.94575919    -0.01960
Br1506     Br  0.83387684  0.88069327  0.96554861    -0.02030
Br1507     Br  0.71875225  0.83544052  0.06475042    -0.01990
Br1508     Br  0.74993442  0.90504444  0.06765607    -0.01980
C1509       C  0.77436833  0.02605210  0.82528480    -0.03100
C1510       C  0.76135214  0.05352983  0.81043310     0.06580
C1511       C  0.76732022  0.08186322  0.82639777    -0.03220
C1512       C  0.78314684  0.08179781  0.85603615    -0.03220
C1513       C  0.79431302  0.05396934  0.87061947     0.06710
C1514       C  0.79341051  0.02732837  0.85231360    -0.03420
Br1515     Br  0.81535069  0.99045615  0.86776512    -0.01960
Br1516     Br  0.76300251  0.98493971  0.81278768    -0.02030
Br1517     Br  0.79025302  0.11982260  0.87743943    -0.01990
Br1518     Br  0.75346649  0.12156159  0.80992817    -0.01980
C1519       C  0.76887823  0.02094009  0.20465819    -0.03100
C1520       C  0.75546089  0.99180874  0.21785180     0.06580
C1521       C  0.75785492  0.96598226  0.19791848    -0.03220
C1522       C  0.77101852  0.96955881  0.16660207    -0.03220
C1523       C  0.78259036  0.99872782  0.15362117     0.06710
C1524       C  0.78271124  0.02374586  0.17381782    -0.03420
Br1525     Br  0.79997899  0.06357919  0.15686908    -0.01960
Br1526     Br  0.76651421  0.05960890  0.22548594    -0.02030
Br1527     Br  0.77123090  0.93474045  0.13997689    -0.01990
Br1528     Br  0.73779326  0.92643461  0.21030837    -0.01980
C1529       C  0.24560284  0.86934919  0.04142927    -0.03100
C1530       C  0.25645029  0.88671568  0.01399336     0.06580
C1531       C  0.27607596  0.86998101  0.99314291    -0.03220
C1532       C  0.28698900  0.83934608  0.00110805    -0.03220
C1533       C  0.27259142  0.82024075  0.02561217     0.06710
C1534       C  0.25278373  0.83654941  0.04674646    -0.03420
Br1535     Br  0.23878834  0.81550387  0.08556405    -0.01960
Br1536     Br  0.22131303  0.89060326  0.07196345    -0.02030
Br1537     Br  0.32195680  0.82449199  0.97711206    -0.01990
Br1538     Br  0.28497678  0.88585670  0.95023764    -0.01980
C1539       C  0.21957316  0.18538112  0.94533878    -0.03100
C1540       C  0.21864598  0.16893951  0.97525129     0.06580
C1541       C  0.23236126  0.18626911  0.00004288    -0.03220
C1542       C  0.25118333  0.21405440  0.99382069    -0.03220
C1543       C  0.24916821  0.23228829  0.96542271     0.06710
C1544       C  0.23267886  0.21700381  0.94098224    -0.03420
Br1545     Br  0.22915881  0.23795939  0.90031331    -0.01960
Br1546     Br  0.20162630  0.16500070  0.91051212    -0.02030
Br1547     Br  0.28059259  0.22660726  0.02503290    -0.01990
Br1548     Br  0.22412534  0.17556789  0.04437456    -0.01980
C1549       C  0.23408597  0.03952667  0.79757240    -0.03100
C1550       C  0.25918606  0.02394534  0.78265744     0.06580
C1551       C  0.26978016  0.99821404  0.80171209    -0.03220
C1552       C  0.26295902  0.99582387  0.83496991    -0.03220
C1553       C  0.24575542  0.02027260  0.85034650     0.06710
C1554       C  0.23601372  0.04529162  0.82986824    -0.03420
Br1555     Br  0.21201047  0.07921635  0.84493051    -0.01960
Br1556     Br  0.19642640  0.01299993  0.80030455    -0.02030
Br1557     Br  0.27702466  0.95747409  0.85672654    -0.01990
Br1558     Br  0.28373769  0.96165751  0.78115530    -0.01980
C1559       C  0.26355798  0.00262950  0.14494634    -0.03100
C1560       C  0.25160740  0.02952947  0.12888310     0.06580
C1561       C  0.24716296  0.05651541  0.14649910    -0.03220
C1562       C  0.25313848  0.05629910  0.17935401    -0.03220
C1563       C  0.26466839  0.02900945  0.19606202     0.06710
C1564       C  0.26962278  0.00218374  0.17797092    -0.03420
Br1565     Br  0.28421610  0.96392852  0.19781668    -0.01960
Br1566     Br  0.27232047  0.96651423  0.12122251    -0.02030
Br1567     Br  0.23993711  0.09248700  0.20143430    -0.01990
Br1568     Br  0.22849273  0.09322893  0.12625845    -0.01980
C1569       C  0.47120319  0.19445529  0.22519840    -0.03100
C1570       C  0.47051892  0.21563782  0.24955387     0.06580
C1571       C  0.46270823  0.19848653  0.27856655    -0.03220
C1572       C  0.47578154  0.16820207  0.28604402    -0.03220
C1573       C  0.48729467  0.15001448  0.26173573     0.06710
C1574       C  0.47955611  0.16200169  0.23120562    -0.03420
Br1575     Br  0.46644173  0.13049761  0.20366234    -0.01960
Br1576     Br  0.44237669  0.20458333  0.19293609    -0.02030
Br1577     Br  0.46852561  0.14843821  0.32718182    -0.01990
Br1578     Br  0.41932245  0.19985405  0.29105490    -0.01980
C1579       C  0.51773244  0.83592377  0.24460288    -0.03100
C1580       C  0.50091559  0.80968323  0.25813168     0.06580
C1581       C  0.47938271  0.81775323  0.28302585    -0.03220
C1582       C  0.48149970  0.84831214  0.29635846    -0.03220
C1583       C  0.49759420  0.87371836  0.27934521     0.06710
C1584       C  0.50460566  0.86553760  0.24844546    -0.03420
Br1585     Br  0.46545902  0.86636528  0.22554187    -0.01960
Br1586     Br  0.56062852  0.83418357  0.23070386    -0.02030
Br1587     Br  0.45705455  0.85688571  0.33312771    -0.01990
Br1588     Br  0.44103464  0.79387459  0.29040499    -0.01980
C1589       C  0.35131015  0.06019782  0.25953612    -0.03100
C1590       C  0.36120398  0.03692324  0.28174884     0.06580
C1591       C  0.34060001  0.01084749  0.28747112    -0.03220
C1592       C  0.31289823  0.00645827  0.26953068    -0.03220
C1593       C  0.30244822  0.02985263  0.24679643     0.06710
C1594       C  0.32307541  0.05680404  0.24203132    -0.03420
Br1595     Br  0.31546628  0.08971573  0.21080520    -0.01960
Br1596     Br  0.37948297  0.09578708  0.25103330    -0.02030
Br1597     Br  0.29101900  0.96664875  0.27584113    -0.01990
Br1598     Br  0.35303927  0.97901697  0.31849083    -0.01980
C1599       C  0.69060091  0.96243451  0.28074496    -0.03100
C1600       C  0.70652601  0.98729493  0.26208394     0.06580
C1601       C  0.68796062  0.01438845  0.25678701    -0.03220
C1602       C  0.66106624  0.01962349  0.27577439    -0.03220
C1603       C  0.64306904  0.99436355  0.29010602     0.06710
C1604       C  0.65867734  0.96540981  0.29260421    -0.03420
Br1605     Br  0.63557222  0.92984947  0.31126173    -0.01960
Br1606     Br  0.70894842  0.92186676  0.28508963    -0.02030
Br1607     Br  0.64623509  0.06203451  0.27873798    -0.01990
Br1608     Br  0.69352933  0.04282783  0.22076467    -0.01980
C1609       C  0.36397989  0.03513727  0.12761492    -0.03100
C1610       C  0.39026778  0.01722280  0.12326572     0.06580
C1611       C  0.40359528  0.01458713  0.09340602    -0.03220
C1612       C  0.39697336  0.03714952  0.06982729    -0.03220
C1613       C  0.37270980  0.05879828  0.07505174     0.06710
C1614       C  0.35668728  0.05813695  0.10475275    -0.03420
Br1615     Br  0.32795233  0.09019895  0.11713072    -0.01960
Br1616     Br  0.34164562  0.03036757  0.16700040    -0.02030
Br1617     Br  0.42461495  0.03996730  0.03318708    -0.01990
Br1618     Br  0.43499704  0.98306762  0.08748152    -0.01980
C1619       C  0.60258078  0.92899717  0.13883290    -0.03100
C1620       C  0.60568437  0.93541346  0.17068677     0.06580
C1621       C  0.63652732  0.94171995  0.17953430    -0.03220
C1622       C  0.65584204  0.95951368  0.15792661    -0.03220
C1623       C  0.64533317  0.96457774  0.12699304     0.06710
C1624       C  0.61708582  0.95048657  0.11790351    -0.03420
Br1625     Br  0.59203737  0.96932170  0.08454836    -0.01960
Br1626     Br  0.57294825  0.90032328  0.12227682    -0.02030
Br1627     Br  0.69150742  0.98177447  0.17163745    -0.01990
Br1628     Br  0.64715854  0.93433299  0.22246134    -0.01980
C1629       C  0.65124704  0.30684988  0.04759822    -0.03100
C1630       C  0.63530166  0.30831815  0.01877459     0.06580
C1631       C  0.65145495  0.29527238  0.99332198    -0.03220
C1632       C  0.67776171  0.27565232  0.99802960    -0.03220
C1633       C  0.69681169  0.27714339  0.02509781     0.06710
C1634       C  0.68233111  0.29370415  0.05019923    -0.03420
Br1635     Br  0.70239906  0.29654939  0.08992468    -0.01960
Br1636     Br  0.62984611  0.32254655  0.08346595    -0.02030
Br1637     Br  0.68309831  0.24483451  0.96764268    -0.01990
Br1638     Br  0.63525191  0.30189072  0.95113129    -0.01980
C1639       C  0.34573140  0.29532204  0.94469263    -0.03100
C1640       C  0.35422586  0.31348572  0.96997873     0.06580
C1641       C  0.33043133  0.31791933  0.99268415    -0.03220
C1642       C  0.30137888  0.30075228  0.99332060    -0.03220
C1643       C  0.29215879  0.28189963  0.96795478     0.06710
C1644       C  0.31527447  0.28027336  0.94332134    -0.03420
Br1645     Br  0.30548754  0.25888505  0.90641884    -0.01960
Br1646     Br  0.37598630  0.29296494  0.91108815    -0.02030
Br1647     Br  0.27705822  0.30202321  0.03170516    -0.01990
Br1648     Br  0.33964925  0.34661996  0.02511381    -0.01980
C1649       C  0.51590780  0.27475780  0.84611813    -0.03100
C1650       C  0.49435423  0.29431483  0.86217004     0.06580
C1651       C  0.46825425  0.30491267  0.84431955    -0.03220
C1652       C  0.46382909  0.29590191  0.81246491    -0.03220
C1653       C  0.48446027  0.27478965  0.79777487     0.06710
C1654       C  0.50942024  0.26312659  0.81616482    -0.03420
Br1655     Br  0.53669029  0.23214555  0.79920666    -0.01960
Br1656     Br  0.55790127  0.26709158  0.86174872    -0.02030
Br1657     Br  0.42841624  0.31138254  0.78921981    -0.01990
Br1658     Br  0.43904919  0.33259976  0.86288905    -0.01980
C1659       C  0.50726782  0.29096156  0.16257457    -0.03100
C1660       C  0.48115982  0.30552675  0.14812132     0.06580
C1661       C  0.45237086  0.30316152  0.16615156    -0.03220
C1662       C  0.44885579  0.28389977  0.19453172    -0.03220
C1663       C  0.47471042  0.26879329  0.20901388     0.06710
C1664       C  0.50394232  0.27207611  0.19176888    -0.03420
Br1665     Br  0.53870312  0.24750131  0.20591865    -0.01960
Br1666     Br  0.54791118  0.30005986  0.14364184    -0.02030
Br1667     Br  0.40698050  0.27350832  0.21035396    -0.01990
Br1668     Br  0.41670574  0.32755995  0.15244891    -0.01980
C1669       C  0.53025615  0.19159776  0.14611983    -0.03100
C1670       C  0.49827550  0.19748294  0.13957225     0.06580
C1671       C  0.47650614  0.17208639  0.13664868    -0.03220
C1672       C  0.48814229  0.14214991  0.13370270    -0.03220
C1673       C  0.51974733  0.13641074  0.14135274     0.06710
C1674       C  0.54059282  0.16093318  0.14811706    -0.03420
Br1675     Br  0.58493832  0.15306088  0.15507527    -0.01960
Br1676     Br  0.56248372  0.22349128  0.13659305    -0.02030
Br1677     Br  0.45951806  0.10986775  0.11964782    -0.01990
Br1678     Br  0.43299170  0.17879208  0.12361539    -0.01980
C1679       C  0.32485588  0.17278520  0.98247154    -0.03100
C1680       C  0.31663877  0.17570452  0.94983998     0.06580
C1681       C  0.33827499  0.18934014  0.92731858    -0.03220
C1682       C  0.36758661  0.19991776  0.93704724    -0.03220
C1683       C  0.37520455  0.19505036  0.96861213     0.06710
C1684       C  0.35504541  0.18015595  0.99083473    -0.03420
Br1685     Br  0.37042365  0.16715544  0.03258779    -0.01960
Br1686     Br  0.29957846  0.15348181  0.01719613    -0.02030
Br1687     Br  0.39902973  0.21633664  0.90713343    -0.01990
Br1688     Br  0.33033353  0.18748798  0.88286319    -0.01980
C1689       C  0.58908422  0.13376850  0.01579426    -0.03100
C1690       C  0.60360653  0.16115627  0.02676464     0.06580
C1691       C  0.63460792  0.16937828  0.01726157    -0.03220
C1692       C  0.65021106  0.15157374  0.99559678    -0.03220
C1693       C  0.63669194  0.12301308  0.98778187     0.06710
C1694       C  0.60452742  0.11740246  0.99299886    -0.03420
Br1695     Br  0.58265962  0.08528516  0.97147010    -0.01960
Br1696     Br  0.54964978  0.11616730  0.03278201    -0.02030
Br1697     Br  0.69227986  0.16210168  0.98083558    -0.01990
Br1698     Br  0.65562701  0.20376440  0.03579860    -0.01980
C1699       C  0.66169306  0.02627965  0.75734892    -0.03100
C1700       C  0.65557816  0.04542149  0.72991235     0.06580
C1701       C  0.67707742  0.07086802  0.72343666    -0.03220
C1702       C  0.70230496  0.07743626  0.74370512    -0.03220
C1703       C  0.71191680  0.05571636  0.76795177     0.06710
C1704       C  0.68855419  0.03219586  0.77675355    -0.03420
Br1705     Br  0.69002911  0.01115335  0.81755173    -0.01960
Br1706     Br  0.63436108  0.99065347  0.76738895    -0.02030
Br1707     Br  0.71667775  0.12015360  0.74334036    -0.01990
Br1708     Br  0.67185301  0.09816664  0.68613858    -0.01980
C1709       C  0.36322327  0.05208406  0.75095499    -0.03100
C1710       C  0.37714707  0.02957785  0.73213300     0.06580
C1711       C  0.35708048  0.00598113  0.72119799    -0.03220
C1712       C  0.32380700  0.00675615  0.72581942    -0.03220
C1713       C  0.30937569  0.02979274  0.74426841     0.06710
C1714       C  0.33005608  0.05177812  0.75762326    -0.03420
Br1715     Br  0.31271806  0.08337524  0.78320428    -0.01960
Br1716     Br  0.38996874  0.08321954  0.76815288    -0.02030
Br1717     Br  0.29889941  0.97735430  0.70376746    -0.01990
Br1718     Br  0.37568331  0.97155098  0.70025417    -0.01980
C1719       C  0.47855926  0.19425924  0.71083392    -0.03100
C1720       C  0.47395649  0.16775624  0.73129394     0.06580
C1721       C  0.46484827  0.17436668  0.76254987    -0.03220
C1722       C  0.46601067  0.20579446  0.77371484    -0.03220
C1723       C  0.47373392  0.23229682  0.75248330     0.06710
C1724       C  0.46900035  0.22397339  0.72068860    -0.03420
Br1725     Br  0.42567592  0.22704729  0.70854123    -0.01960
Br1726     Br  0.48689787  0.18798428  0.66730927    -0.02030
Br1727     Br  0.45201645  0.21095714  0.81635311    -0.01990
Br1728     Br  0.44631466  0.14059563  0.78794875    -0.01980
C1729       C  0.56222619  0.88288635  0.73039135    -0.03100
C1730       C  0.53907780  0.89421695  0.70924329     0.06580
C1731       C  0.51380353  0.87305492  0.70468604    -0.03220
C1732       C  0.50744128  0.84635147  0.72546541    -0.03220
C1733       C  0.53075579  0.83335059  0.74624687     0.06710
C1734       C  0.55873820  0.85269914  0.74756813    -0.03420
Br1735     Br  0.59296068  0.83861841  0.77293766    -0.01960
Br1736     Br  0.59928091  0.90869800  0.73479554    -0.02030
Br1737     Br  0.46368715  0.83395551  0.72835866    -0.01990
Br1738     Br  0.48517186  0.88326424  0.67088814    -0.01980
C1739       C  0.46677020  0.12494062  0.87019302    -0.03100
C1740       C  0.49318849  0.12662399  0.85030152     0.06580
C1741       C  0.51792634  0.14862975  0.85376368    -0.03220
C1742       C  0.51855021  0.16491719  0.88072220    -0.03220
C1743       C  0.49194630  0.16351320  0.90095323     0.06710
C1744       C  0.46582515  0.14378860  0.89575535    -0.03420
Br1745     Br  0.43007807  0.14023471  0.92430952    -0.01960
Br1746     Br  0.43227401  0.09703703  0.86160127    -0.02030
Br1747     Br  0.55886501  0.18303195  0.89235939    -0.01990
Br1748     Br  0.55373869  0.15454061  0.82460498    -0.01980
C1749       C  0.39741397  0.97791240  0.85104828    -0.03100
C1750       C  0.42457360  0.98697971  0.86706359     0.06580
C1751       C  0.42242995  0.01029121  0.88898702    -0.03220
C1752       C  0.39472726  0.02756765  0.89072348    -0.03220
C1753       C  0.37056251  0.02289403  0.86832784     0.06710
C1754       C  0.37342114  0.99905178  0.84764781    -0.03420
Br1755     Br  0.34601690  0.99696933  0.81292987    -0.01960
Br1756     Br  0.39432715  0.93960097  0.82902418    -0.02030
Br1757     Br  0.39209236  0.05713125  0.92362587    -0.01990
Br1758     Br  0.45688650  0.01804767  0.91693937    -0.01980
C1759       C  0.62117332  0.05587887  0.89491500    -0.03100
C1760       C  0.65424114  0.05265755  0.89456963     0.06580
C1761       C  0.67301874  0.07579736  0.87782542    -0.03220
C1762       C  0.65858235  0.09461307  0.85441359    -0.03220
C1763       C  0.62705159  0.08914606  0.84908756     0.06710
C1764       C  0.60899972  0.07985691  0.87579844    -0.03420
Br1765     Br  0.56621798  0.09136492  0.87987365    -0.01960
Br1766     Br  0.59220068  0.02569464  0.91572925    -0.02030
Br1767     Br  0.67850468  0.12851900  0.83060932    -0.01990
Br1768     Br  0.71474205  0.08521574  0.89046981    -0.01980
C1769       C  0.35712154  0.75197339  0.05458732    -0.03100
C1770       C  0.36715417  0.73240385  0.03085646     0.06580
C1771       C  0.34559348  0.72857425  0.00631772    -0.03220
C1772       C  0.31830488  0.74742952  0.00278946    -0.03220
C1773       C  0.30793636  0.76723933  0.02681260     0.06710
C1774       C  0.32857043  0.76940235  0.05266492    -0.03420
Br1775     Br  0.31933797  0.79765073  0.08505879    -0.01960
Br1776     Br  0.38375026  0.75479969  0.08977211    -0.02030
Br1777     Br  0.29999531  0.75045879  0.96166662    -0.01990
Br1778     Br  0.35632109  0.69958974  0.97480460    -0.01980
C1779       C  0.70540100  0.76801194  0.97879927    -0.03100
C1780       C  0.71786471  0.77472512  0.00887403     0.06580
C1781       C  0.69793436  0.76379308  0.03501579    -0.03220
C1782       C  0.66686867  0.75110996  0.03078674    -0.03220
C1783       C  0.65333877  0.74906019  0.00079192     0.06710
C1784       C  0.67337961  0.75758505  0.97487071    -0.03420
Br1785     Br  0.65604827  0.75600018  0.93350199    -0.01960
Br1786     Br  0.73253045  0.76858042  0.94246625    -0.02030
Br1787     Br  0.64092079  0.73760759  0.06696431    -0.01990
Br1788     Br  0.71192144  0.76293452  0.07776857    -0.01980
C1789       C  0.53787409  0.73989704  0.17007498    -0.03100
C1790       C  0.51201472  0.74184332  0.14953074     0.06580
C1791       C  0.48446890  0.75509017  0.16186149    -0.03220
C1792       C  0.48348870  0.76854064  0.19213536    -0.03220
C1793       C  0.50949716  0.76669161  0.21299309     0.06710
C1794       C  0.53685764  0.75204274  0.20076814    -0.03420
Br1795     Br  0.57530453  0.75157234  0.22381602    -0.01960
Br1796     Br  0.57564976  0.72033002  0.15540480    -0.02030
Br1797     Br  0.44654493  0.79108408  0.20357900    -0.01990
Br1798     Br  0.44759168  0.75371219  0.13709666    -0.01980
C1799       C  0.54955062  0.77267997  0.81637646    -0.03100
C1800       C  0.52764757  0.79218481  0.79921391     0.06580
C1801       C  0.50181409  0.80171778  0.81753218    -0.03220
C1802       C  0.49412867  0.78757933  0.84767961    -0.03220
C1803       C  0.51613612  0.76900201  0.86545602     0.06710
C1804       C  0.54447456  0.76248392  0.84913650    -0.03420
Br1805     Br  0.57607225  0.73889545  0.87137627    -0.01960
Br1806     Br  0.58821805  0.76147209  0.79657335    -0.02030
Br1807     Br  0.44964257  0.78981633  0.86016560    -0.01990
Br1808     Br  0.47351634  0.83222151  0.80134358    -0.01980
C1809       C  0.54104509  0.86657034  0.87578325    -0.03100
C1810       C  0.50942732  0.87362698  0.88113911     0.06580
C1811       C  0.49087766  0.88625105  0.85734173    -0.03220
C1812       C  0.50499912  0.89614470  0.82880990    -0.03220
C1813       C  0.53857867  0.89538765  0.82569138     0.06710
C1814       C  0.55624010  0.87905733  0.84853548    -0.03420
Br1815     Br  0.60113902  0.87634668  0.84366346    -0.01960
Br1816     Br  0.56220553  0.83858254  0.90498603    -0.02030
Br1817     Br  0.47684626  0.91124881  0.79596777    -0.01990
Br1818     Br  0.44616209  0.89024035  0.86479193    -0.01980
C1819       C  0.49654741  0.87441273  0.15960157    -0.03100
C1820       C  0.46948797  0.89092261  0.15101366     0.06580
C1821       C  0.44192581  0.87560465  0.14249396    -0.03220
C1822       C  0.44393742  0.84438310  0.13551446    -0.03220
C1823       C  0.47414047  0.83170735  0.13388619     0.06710
C1824       C  0.49771955  0.84296366  0.15336885    -0.03420
Br1825     Br  0.53726471  0.82191760  0.15835666    -0.01960
Br1826     Br  0.52931355  0.89411393  0.18335523    -0.02030
Br1827     Br  0.40893503  0.82450297  0.11673254    -0.01990
Br1828     Br  0.40292440  0.89795103  0.13882094    -0.01980
C1829       C  0.37112027  0.93573932  0.02991655    -0.03100
C1830       C  0.38457933  0.94858462  0.00147509     0.06580
C1831       C  0.39625340  0.92843504  0.97932024    -0.03220
C1832       C  0.38884184  0.89650184  0.98254815    -0.03220
C1833       C  0.37871060  0.88325026  0.01210999     0.06710
C1834       C  0.36855080  0.90305745  0.03530009    -0.03420
Br1835     Br  0.35065724  0.88466333  0.07382216    -0.01960
Br1836     Br  0.35165903  0.96290680  0.05891733    -0.02030
Br1837     Br  0.39477096  0.87101215  0.94680850    -0.01990
Br1838     Br  0.41555373  0.94564654  0.94088133    -0.01980
C1839       C  0.67131177  0.86831080  0.97643547    -0.03100
C1840       C  0.67552397  0.87626839  0.00761910     0.06580
C1841       C  0.64831885  0.87709719  0.02672561    -0.03220
C1842       C  0.62187921  0.89006477  0.01220429    -0.03220
C1843       C  0.61732596  0.88534584  0.98000584     0.06710
C1844       C  0.64268033  0.87495766  0.96195964    -0.03420
Br1845     Br  0.63730553  0.86740505  0.91846275    -0.01960
Br1846     Br  0.70580179  0.85381048  0.95242164    -0.02030
Br1847     Br  0.58910709  0.90767785  0.03713017    -0.01990
Br1848     Br  0.65206860  0.87827137  0.07168605    -0.01980
C1849       C  0.86090417  0.80278762  0.98807369    -0.03100
C1850       C  0.87357756  0.81321582  0.01646693     0.06580
C1851       C  0.85408125  0.80898884  0.04355005    -0.03220
C1852       C  0.82359508  0.79421110  0.04258019    -0.03220
C1853       C  0.81218573  0.78082374  0.01479541     0.06710
C1854       C  0.83184156  0.78551250  0.98734770    -0.03420
Br1855     Br  0.82056442  0.76791360  0.94794401    -0.01960
Br1856     Br  0.88563950  0.81020419  0.94979634    -0.02030
Br1857     Br  0.79789480  0.79222280  0.08021027    -0.01990
Br1858     Br  0.87043090  0.82217289  0.08266301    -0.01980
C1859       C  0.18049937  0.82048677  0.98842637    -0.03100
C1860       C  0.15510267  0.81588088  0.01030925     0.06580
C1861       C  0.16069353  0.79427635  0.03602718    -0.03220
C1862       C  0.18961827  0.77746937  0.03943454    -0.03220
C1863       C  0.21503351  0.78177177  0.01734470     0.06710
C1864       C  0.20940935  0.80371221  0.99136797    -0.03420
Br1865     Br  0.23883971  0.80836655  0.95638055    -0.01960
Br1866     Br  0.17484079  0.84978479  0.95293518    -0.02030
Br1867     Br  0.19381755  0.74788819  0.07485736    -0.01990
Br1868     Br  0.12806912  0.78663934  0.06664471    -0.01980
C1869       C  0.98662311  0.80499107  0.84201637    -0.03100
C1870       C  0.01236135  0.80397594  0.86279476     0.06580
C1871       C  0.03986402  0.78940026  0.85160931    -0.03220
C1872       C  0.04077680  0.77469018  0.82180849    -0.03220
C1873       C  0.01504073  0.77623449  0.80059939     0.06710
C1874       C  0.98764199  0.79123859  0.81211750    -0.03420
Br1875     Br  0.94887263  0.78939467  0.78958428    -0.01960
Br1876     Br  0.94899962  0.82600779  0.85495826    -0.02030
Br1877     Br  0.07676872  0.75033395  0.81121843    -0.01990
Br1878     Br  0.07677963  0.79085889  0.87705412    -0.01980
C1879       C  0.05517371  0.78646712  0.15714478    -0.03100
C1880       C  0.02941282  0.79865404  0.13954304     0.06580
C1881       C  0.00035565  0.79918135  0.15624815    -0.03220
C1882       C  0.99750297  0.78832020  0.18886432    -0.03220
C1883       C  0.02266794  0.77225648  0.20532010     0.06710
C1884       C  0.05108851  0.77079050  0.18740968    -0.03420
Br1885     Br  0.08649922  0.74842673  0.20394866    -0.01960
Br1886     Br  0.09795687  0.79527357  0.14280783    -0.02030
Br1887     Br  0.95784489  0.79663676  0.20878481    -0.01990
Br1888     Br  0.96395074  0.81531723  0.13457849    -0.01980
C1889       C  0.80864043  0.26525073  0.05332695    -0.03100
C1890       C  0.79227704  0.27934806  0.02672816     0.06580
C1891       C  0.80856031  0.27647092  0.99781190    -0.03220
C1892       C  0.83564180  0.25743533  0.99459889    -0.03220
C1893       C  0.85460047  0.24746193  0.02113548     0.06710
C1894       C  0.84010449  0.25234075  0.05071498    -0.03420
Br1895     Br  0.86223517  0.23836675  0.08774230    -0.01960
Br1896     Br  0.78842373  0.26107394  0.09387557    -0.02030
Br1897     Br  0.84435013  0.24602844  0.95158656    -0.01990
Br1898     Br  0.79530678  0.29963483  0.96092635    -0.01980
C1899       C  0.03693221  0.27448759  0.81635477    -0.03100
C1900       C  0.01098374  0.27622573  0.79496382     0.06580
C1901       C  0.98336759  0.25923152  0.80676114    -0.03220
C1902       C  0.98267410  0.24071683  0.83570543    -0.03220
C1903       C  0.00745008  0.24132262  0.85768085     0.06710
C1904       C  0.03544968  0.25627434  0.84609531    -0.03420
Br1905     Br  0.07322808  0.24524491  0.86741330    -0.01960
Br1906     Br  0.07538744  0.29734940  0.80650587    -0.02030
Br1907     Br  0.94901134  0.20952797  0.84261173    -0.01990
Br1908     Br  0.94433058  0.26000324  0.78489805    -0.01980
C1909       C  0.15808439  0.24142711  0.99877176    -0.03100
C1910       C  0.13567540  0.24721810  0.97530851     0.06580
C1911       C  0.14527544  0.26728490  0.94928486    -0.03220
C1912       C  0.17643980  0.27987386  0.94588939    -0.03220
C1913       C  0.19849320  0.27561080  0.97019413     0.06710
C1914       C  0.18793942  0.25711670  0.99748931    -0.03420
Br1915     Br  0.20970348  0.25883768  0.03652168    -0.01960
Br1916     Br  0.14546392  0.21530278  0.03536433    -0.02030
Br1917     Br  0.18772466  0.30470884  0.90835819    -0.01990
Br1918     Br  0.11398146  0.28206787  0.92079692    -0.01980
C1919       C  0.02506947  0.24453551  0.15783095    -0.03100
C1920       C  0.99898884  0.25085651  0.13865777     0.06580
C1921       C  0.97525836  0.26975058  0.15063655    -0.03220
C1922       C  0.97775254  0.28271576  0.18068202    -0.03220
C1923       C  0.00304939  0.27499955  0.20126610     0.06710
C1924       C  0.02752348  0.25668699  0.18820094    -0.03420
Br1925     Br  0.06687383  0.25054474  0.20933400    -0.01960
Br1926     Br  0.05854151  0.21990119  0.14118019    -0.02030
Br1927     Br  0.94650536  0.31246011  0.19134740    -0.01990
Br1928     Br  0.93996056  0.27972131  0.12404561    -0.01980
C1929       C  0.84729264  0.47643724  0.26931042    -0.03100
C1930       C  0.86207881  0.50008853  0.28609684     0.06580
C1931       C  0.84400397  0.52676064  0.29164427    -0.03220
C1932       C  0.81474063  0.53212505  0.27678349    -0.03220
C1933       C  0.79939228  0.50860585  0.25968817     0.06710
C1934       C  0.81676029  0.48065300  0.25585487    -0.03420
Br1935     Br  0.80040468  0.44854117  0.23036644    -0.01960
Br1936     Br  0.86973636  0.43809210  0.26490901    -0.02030
Br1937     Br  0.79965974  0.57448436  0.27512419    -0.01990
Br1938     Br  0.86166706  0.55804373  0.31766513    -0.01980
C1939       C  0.19847838  0.52946601  0.28012899    -0.03100
C1940       C  0.20573314  0.55273757  0.25546151     0.06580
C1941       C  0.18027553  0.57211382  0.24564630    -0.03220
C1942       C  0.14993602  0.56943625  0.26091694    -0.03220
C1943       C  0.14312445  0.54657952  0.28554088     0.06710
C1944       C  0.16821869  0.52721871  0.29519908    -0.03420
Br1945     Br  0.15984753  0.49536968  0.32830047    -0.01960
Br1946     Br  0.22832825  0.49742442  0.29149685    -0.02030
Br1947     Br  0.11639918  0.59622459  0.24708500    -0.01990
Br1948     Br  0.18627084  0.60232144  0.21069989    -0.01980
C1949       C  0.03822181  0.67530056  0.28179315    -0.03100
C1950       C  0.00846542  0.66022266  0.27985214     0.06580
C1951       C  0.98462324  0.67853336  0.26418454    -0.03220
C1952       C  0.99222896  0.70655488  0.24611686    -0.03220
C1953       C  0.02045785  0.72352996  0.25033429     0.06710
C1954       C  0.04354589  0.70704660  0.26914236    -0.03420
Br1955     Br  0.08315045  0.72651627  0.27842490    -0.01960
Br1956     Br  0.07100774  0.65341026  0.30411090    -0.02030
Br1957     Br  0.96116196  0.72236128  0.21756688    -0.01990
Br1958     Br  0.93947945  0.66836955  0.26764117    -0.01980
C1959       C  0.03218467  0.36487974  0.25803610    -0.03100
C1960       C  0.00595401  0.38005139  0.27107581     0.06580
C1961       C  0.97755323  0.36253594  0.27375923    -0.03220
C1962       C  0.97546264  0.33116712  0.26308328    -0.03220
C1963       C  0.00143614  0.31704080  0.24706887     0.06710
C1964       C  0.02886112  0.33630044  0.24291002    -0.03420
Br1965     Br  0.06134015  0.32704036  0.21315168    -0.01960
Br1966     Br  0.07401803  0.38300248  0.26145150    -0.02030
Br1967     Br  0.93470234  0.31120620  0.26690253    -0.01990
Br1968     Br  0.94124827  0.38227923  0.29119348    -0.01980
C1969       C  0.98854292  0.40630574  0.14439274    -0.03100
C1970       C  0.98837530  0.43783619  0.13322295     0.06580
C1971       C  0.97548004  0.44554127  0.10340506    -0.03220
C1972       C  0.96595565  0.42148061  0.08451426    -0.03220
C1973       C  0.97597077  0.39067958  0.09222698     0.06710
C1974       C  0.98658841  0.38305549  0.12289967    -0.03420
Br1975     Br  0.00315820  0.34278846  0.13566923    -0.01960
Br1976     Br  0.99062112  0.39417366  0.18861314    -0.02030
Br1977     Br  0.94157946  0.43226644  0.04753513    -0.01990
Br1978     Br  0.97387820  0.48791571  0.08535967    -0.01980
C1979       C  0.99860202  0.68977268  0.16027500    -0.03100
C1980       C  0.01952039  0.67712100  0.18266419     0.06580
C1981       C  0.05205569  0.68408032  0.18017959    -0.03220
C1982       C  0.06431339  0.69783541  0.15206838    -0.03220
C1983       C  0.04347809  0.70774935  0.12878533     0.06710
C1984       C  0.01080486  0.70763861  0.13452374    -0.03420
Br1985     Br  0.98274240  0.72744181  0.10456502    -0.01960
Br1986     Br  0.95555813  0.67420914  0.15838479    -0.02030
Br1987     Br  0.10909422  0.69823453  0.14322628    -0.01990
Br1988     Br  0.08041768  0.66573926  0.21069784    -0.01980
C1989       C  0.28169365  0.53294216  0.83583338    -0.03100
C1990       C  0.29652931  0.50874714  0.85556673     0.06580
C1991       C  0.29693470  0.47909770  0.84192296    -0.03220
C1992       C  0.28395063  0.47401439  0.81110412    -0.03220
C1993       C  0.26796875  0.49798492  0.79251872     0.06710
C1994       C  0.26474549  0.52634533  0.80785983    -0.03420
Br1995     Br  0.23684928  0.55748106  0.79014033    -0.01960
Br1996     Br  0.28320094  0.57694954  0.84518300    -0.02030
Br1997     Br  0.28624502  0.43251400  0.79625493    -0.01990
Br1998     Br  0.31846854  0.44594605  0.86424353    -0.01980
C1999       C  0.23306464  0.52983527  0.15436198    -0.03100
C2000       C  0.25994634  0.54385369  0.13749624     0.06580
C2001       C  0.27662292  0.56652421  0.15417536    -0.03220
C2002       C  0.26683069  0.57401631  0.18547411    -0.03220
C2003       C  0.24482918  0.55464988  0.20410853     0.06710
C2004       C  0.22785434  0.53248893  0.18713662    -0.03420
Br2005     Br  0.19813806  0.50295290  0.20806354    -0.01960
Br2006     Br  0.19886183  0.50972543  0.13370870    -0.02030
Br2007     Br  0.27856152  0.61450390  0.19948221    -0.01990
Br2008     Br  0.31223602  0.58824919  0.13434791    -0.01980
C2009       C  0.27588436  0.67688572  0.03841969    -0.03100
C2010       C  0.27200231  0.66368323  0.00871323     0.06580
C2011       C  0.25584387  0.68364148  0.98587603    -0.03220
C2012       C  0.24272381  0.71304018  0.99328614    -0.03220
C2013       C  0.25048722  0.72807948  0.02096437     0.06710
C2014       C  0.26587071  0.70839874  0.04425630    -0.03420
Br2015     Br  0.27171018  0.72366821  0.08548282    -0.01960
Br2016     Br  0.29687106  0.65272627  0.07087502    -0.02030
Br2017     Br  0.21611553  0.73381324  0.96285840    -0.01990
Br2018     Br  0.25456295  0.67546691  0.94141438    -0.01980
C2019       C  0.27486301  0.37268622  0.95774137    -0.03100
C2020       C  0.26733967  0.38529121  0.98701228     0.06580
C2021       C  0.24356307  0.36787413  0.00563686    -0.03220
C2022       C  0.22675582  0.34206332  0.99400484    -0.03220
C2023       C  0.23873149  0.32584984  0.96853772     0.06710
C2024       C  0.26087193  0.34358100  0.94867756    -0.03420
Br2025     Br  0.26835582  0.33085119  0.90670766    -0.01960
Br2026     Br  0.30663311  0.39332201  0.93124398    -0.02030
Br2027     Br  0.18600428  0.33147832  0.01268346    -0.01990
Br2028     Br  0.23514080  0.37381309  0.04998310    -0.01980
C2029       C  0.12874949  0.56171849  0.09091004    -0.03100
C2030       C  0.12634438  0.53036520  0.08344983     0.06580
C2031       C  0.11978885  0.50686711  0.10677275    -0.03220
C2032       C  0.12201067  0.51357117  0.13824576    -0.03220
C2033       C  0.12662120  0.54531304  0.14631424     0.06710
C2034       C  0.13054337  0.56917307  0.12229878    -0.03420
Br2035     Br  0.13621272  0.61234778  0.13259873    -0.01960
Br2036     Br  0.12930092  0.59400100  0.05779302    -0.02030
Br2037     Br  0.12085194  0.47783288  0.16856969    -0.01990
Br2038     Br  0.11169818  0.46453313  0.09475601    -0.01980
C2039       C  0.13300853  0.40056706  0.99277259    -0.03100
C2040       C  0.15942884  0.39696952  0.97324425     0.06580
C2041       C  0.15614337  0.38557842  0.94331857    -0.03220
C2042       C  0.12626320  0.37797982  0.93262266    -0.03220
C2043       C  0.09965829  0.38297162  0.95155058     0.06710
C2044       C  0.10308434  0.39666984  0.98069464    -0.03420
Br2045     Br  0.06657054  0.40638071  0.00592040    -0.01960
Br2046     Br  0.13775395  0.41351856  0.03514694    -0.02030
Br2047     Br  0.12192169  0.36233136  0.89174070    -0.01990
Br2048     Br  0.19273980  0.38382964  0.91639762    -0.01980
C2049       C  0.15447328  0.68913235  0.92725763    -0.03100
C2050       C  0.14630757  0.70202207  0.95545684     0.06580
C2051       C  0.15578205  0.68843683  0.98477112    -0.03220
C2052       C  0.16984702  0.65959851  0.98542035    -0.03220
C2053       C  0.17063760  0.64374783  0.95771474     0.06710
C2054       C  0.16509274  0.65871991  0.92831873    -0.03420
Br2055     Br  0.17094117  0.63728710  0.89004058    -0.01960
Br2056     Br  0.14966177  0.71266459  0.88804994    -0.02030
Br2057     Br  0.18837970  0.64230477  0.02358975    -0.01990
Br2058     Br  0.14529920  0.70579966  0.02451852    -0.01980
C2059       C  0.18913856  0.52829496  0.70474497    -0.03100
C2060       C  0.16476041  0.50563561  0.71084548     0.06580
C2061       C  0.17260791  0.47982867  0.73134627    -0.03220
C2062       C  0.20299957  0.47723813  0.74575573    -0.03220
C2063       C  0.22705800  0.50099492  0.74138985     0.06710
C2064       C  0.21892631  0.52684666  0.72016519    -0.03420
Br2065     Br  0.24652457  0.56298482  0.71321136    -0.01960
Br2066     Br  0.18029266  0.56308493  0.67555511    -0.02030
Br2067     Br  0.21178258  0.43945452  0.76990964    -0.01990
Br2068     Br  0.14075464  0.44790945  0.74002354    -0.01980
C2069       C  0.98974897  0.33991166  0.73842214    -0.03100
C2070       C  0.01732335  0.32191465  0.74432863     0.06580
C2071       C  0.04575787  0.33812699  0.73242735    -0.03220
C2072       C  0.04611814  0.37053777  0.71960231    -0.03220
C2073       C  0.01796517  0.38676376  0.71294234     0.06710
C2074       C  0.99007712  0.36840410  0.71930053    -0.03420
Br2075     Br  0.95111664  0.38051753  0.69909414    -0.01960
Br2076     Br  0.95003081  0.32978387  0.75808676    -0.02030
Br2077     Br  0.08512727  0.39219222  0.70912993    -0.01990
Br2078     Br  0.08517841  0.31726066  0.73207577    -0.01980
C2079       C  0.04211663  0.69127274  0.72176036    -0.03100
C2080       C  0.01964589  0.66808241  0.73200096     0.06580
C2081       C  0.99858233  0.67584251  0.75636592    -0.03220
C2082       C  0.99904547  0.70621359  0.76911265    -0.03220
C2083       C  0.02059710  0.73033564  0.75762172     0.06710
C2084       C  0.04361960  0.72105852  0.73527921    -0.03420
Br2085     Br  0.08083031  0.74656732  0.72646243    -0.01960
Br2086     Br  0.07244299  0.68115043  0.68979909    -0.02030
Br2087     Br  0.97055874  0.71324411  0.80330863    -0.01990
Br2088     Br  0.96960614  0.64369465  0.77318271    -0.01980
C2089       C  0.86790032  0.58656542  0.73066223    -0.03100
C2090       C  0.88147721  0.55652318  0.72954510     0.06580
C2091       C  0.86248007  0.53150971  0.74391263    -0.03220
C2092       C  0.83662763  0.53702840  0.76417486    -0.03220
C2093       C  0.81993575  0.56535355  0.76231667     0.06710
C2094       C  0.83667667  0.59048599  0.74456433    -0.03420
Br2095     Br  0.81895985  0.63138366  0.74091086    -0.01960
Br2096     Br  0.89174669  0.62187836  0.71268991    -0.02030
Br2097     Br  0.82620170  0.50438115  0.79487202    -0.01990
Br2098     Br  0.86983774  0.48778621  0.73485376    -0.01980
C2099       C  0.18847056  0.52096983  0.84532567    -0.03100
C2100       C  0.20707792  0.49457915  0.85247227     0.06580
C2101       C  0.19797797  0.46450558  0.84410724    -0.03220
C2102       C  0.16806378  0.45977535  0.83205711    -0.03220
C2103       C  0.14869441  0.48560560  0.82739117     0.06710
C2104       C  0.15855709  0.51617889  0.83448582    -0.03420
Br2105     Br  0.13002808  0.55156299  0.83400062    -0.01960
Br2106     Br  0.19878026  0.56267596  0.85935965    -0.02030
Br2107     Br  0.15231869  0.41820655  0.82529831    -0.01990
Br2108     Br  0.22452284  0.42961125  0.85464923    -0.01980
C2109       C  0.97741652  0.36879493  0.81428917    -0.03100
C2110       C  0.00954340  0.37851568  0.81252160     0.06580
C2111       C  0.03308134  0.36119224  0.82710846    -0.03220
C2112       C  0.02393002  0.33692680  0.84825736    -0.03220
C2113       C  0.99199642  0.32800961  0.85069266     0.06710
C2114       C  0.96941092  0.34104070  0.83098140    -0.03420
Br2115     Br  0.92550478  0.32774768  0.83617710    -0.01960
Br2116     Br  0.94297121  0.39591852  0.80149967    -0.02030
Br2117     Br  0.05259955  0.32279464  0.88033073    -0.01990
Br2118     Br  0.07642366  0.37545884  0.82318895    -0.01980
C2119       C  0.98150324  0.66479220  0.87218211    -0.03100
C2120       C  0.00540621  0.68543797  0.88034777     0.06580
C2121       C  0.03655955  0.68138711  0.87042781    -0.03220
C2122       C  0.04485133  0.65376903  0.85697995    -0.03220
C2123       C  0.02159874  0.63020412  0.85429832     0.06710
C2124       C  0.98976493  0.63593380  0.86110606    -0.03420
Br2125     Br  0.95779291  0.60406850  0.85797145    -0.01960
Br2126     Br  0.93813198  0.67467503  0.87985269    -0.02030
Br2127     Br  0.08882970  0.64689642  0.84724852    -0.01990
Br2128     Br  0.06875111  0.71000027  0.88298445    -0.01980
C2129       C  0.70927910  0.36658703  0.00116660    -0.03100
C2130       C  0.71503820  0.38889980  0.02403278     0.06580
C2131       C  0.73455334  0.37841042  0.04896153    -0.03220
C2132       C  0.74900265  0.34767606  0.04972653    -0.03220
C2133       C  0.74586464  0.32636777  0.02465690     0.06710
C2134       C  0.72659698  0.33836556  0.99947884    -0.03420
Br2135     Br  0.72419757  0.31906857  0.95974186    -0.01960
Br2136     Br  0.67491867  0.37366109  0.97226666    -0.02030
Br2137     Br  0.77269271  0.33571748  0.08613205    -0.01990
Br2138     Br  0.73894186  0.40547228  0.08334302    -0.01980
C2139       C  0.76890145  0.68106329  0.98710853    -0.03100
C2140       C  0.74360254  0.66888295  0.00672258     0.06580
C2141       C  0.73558375  0.68700329  0.03240303    -0.03220
C2142       C  0.75261018  0.71510240  0.03800260    -0.03220
C2143       C  0.77129317  0.73074925  0.01412654     0.06710
C2144       C  0.78476963  0.70985993  0.99315053    -0.03420
Br2145     Br  0.82999870  0.70655748  0.99351909    -0.01960
Br2146     Br  0.78645299  0.65531780  0.95573570    -0.02030
Br2147     Br  0.77039359  0.71550965  0.07918181    -0.01990
Br2148     Br  0.70634622  0.67004328  0.06411495    -0.01980
C2149       C  0.75503524  0.54099686  0.16182824    -0.03100
C2150       C  0.73182915  0.52057520  0.14972538     0.06580
C2151       C  0.72091722  0.49550846  0.17010446    -0.03220
C2152       C  0.73218713  0.49175259  0.20166004    -0.03220
C2153       C  0.75638540  0.51182784  0.21310432     0.06710
C2154       C  0.76981432  0.53406417  0.19084506    -0.03420
Br2155     Br  0.80921719  0.55511357  0.19844887    -0.01960
Br2156     Br  0.76638084  0.58024646  0.13907707    -0.02030
Br2157     Br  0.71779559  0.45568633  0.22685128    -0.01990
Br2158     Br  0.69147401  0.46580865  0.15416104    -0.01980
C2159       C  0.75512656  0.58500132  0.85915526    -0.03100
C2160       C  0.73402765  0.55974899  0.86788226     0.06580
C2161       C  0.72994015  0.53755656  0.84440273    -0.03220
C2162       C  0.75063615  0.53617732  0.81800802    -0.03220
C2163       C  0.77063388  0.56203532  0.80742719     0.06710
C2164       C  0.77184823  0.58691246  0.82893541    -0.03420
Br2165     Br  0.79523167  0.62469331  0.81693724    -0.01960
Br2166     Br  0.75855106  0.61832178  0.88728465    -0.02030
Br2167     Br  0.75145258  0.49625654  0.79903958    -0.01990
Br2168     Br  0.69353000  0.50924057  0.84643343    -0.01980
C2169       C  0.85001580  0.49764434  0.86386593    -0.03100
C2170       C  0.83440977  0.52649629  0.86557091     0.06580
C2171       C  0.85017311  0.55476275  0.85607498    -0.03220
C2172       C  0.87931304  0.55372823  0.84122541    -0.03220
C2173       C  0.89645347  0.52614887  0.84470432     0.06710
C2174       C  0.88187260  0.49787271  0.85572053    -0.03420
Br2175     Br  0.90532306  0.45938182  0.85865502    -0.01960
Br2176     Br  0.82925915  0.45819700  0.87656680    -0.02030
Br2177     Br  0.89390182  0.58925743  0.81498316    -0.01990
Br2178     Br  0.83928912  0.59375814  0.87367080    -0.01980
C2179       C  0.86588118  0.47696810  0.12852915    -0.03100
C2180       C  0.87028532  0.48331440  0.09616343     0.06580
C2181       C  0.89292781  0.50583203  0.08451163    -0.03220
C2182       C  0.90660408  0.52576530  0.10515038    -0.03220
C2183       C  0.90147290  0.52009953  0.13759264     0.06710
C2184       C  0.88212280  0.49503787  0.14946664    -0.03420
Br2185     Br  0.87803838  0.48500195  0.19377727    -0.01960
Br2186     Br  0.83492653  0.44590716  0.14356134    -0.02030
Br2187     Br  0.93210776  0.56148951  0.08865639    -0.01990
Br2188     Br  0.90228625  0.51341488  0.04000715    -0.01980
C2189       C  0.81731277  0.36757076  0.97517286    -0.03100
C2190       C  0.80727529  0.38045768  0.00313135     0.06580
C2191       C  0.82172026  0.37263865  0.03205338    -0.03220
C2192       C  0.84397408  0.34924315  0.03339479    -0.03220
C2193       C  0.85554449  0.33878974  0.00512760     0.06710
C2194       C  0.84385992  0.34940761  0.97589803    -0.03420
Br2195     Br  0.86543950  0.34171973  0.93644483    -0.01960
Br2196     Br  0.79984348  0.37994232  0.93452171    -0.02030
Br2197     Br  0.86330605  0.33628765  0.07261035    -0.01990
Br2198     Br  0.81891116  0.39973219  0.06690333    -0.01980
C2199       C  0.89328880  0.63556881  0.98110477    -0.03100
C2200       C  0.87967804  0.61413263  0.00299685     0.06580
C2201       C  0.88338058  0.61652103  0.03582272    -0.03220
C2202       C  0.90227291  0.64039440  0.04650050    -0.03220
C2203       C  0.91607624  0.66187669  0.02456876     0.06710
C2204       C  0.91073617  0.66030769  0.99181892    -0.03420
Br2205     Br  0.92413153  0.69255792  0.96086859    -0.01960
Br2206     Br  0.88470515  0.63267404  0.93683321    -0.02030
Br2207     Br  0.90686432  0.64589742  0.09084741    -0.01990
Br2208     Br  0.86039331  0.58938859  0.06654057    -0.01980
C2209       C  0.28597243  0.53338722  0.64857050    -0.03100
C2210       C  0.26410328  0.51470262  0.63234578     0.06580
C2211       C  0.25289864  0.48703639  0.64911077    -0.03220
C2212       C  0.26211563  0.47939884  0.68103882    -0.03220
C2213       C  0.28317463  0.49899888  0.69769436     0.06710
C2214       C  0.29775785  0.52380107  0.67866847    -0.03420
Br2215     Br  0.33580222  0.54442269  0.69113235    -0.01960
Br2216     Br  0.29762089  0.57516718  0.63189026    -0.02030
Br2217     Br  0.25022039  0.43878624  0.69923172    -0.01990
Br2218     Br  0.22571885  0.45873778  0.62796375    -0.01980
C2219       C  0.21953736  0.57884800  0.33774123    -0.03100
C2220       C  0.23638385  0.56310908  0.36185421     0.06580
C2221       C  0.26782001  0.55658751  0.35395362    -0.03220
C2222       C  0.27836791  0.55443972  0.32212198    -0.03220
C2223       C  0.25960678  0.56619382  0.29669873     0.06710
C2224       C  0.23352882  0.58429934  0.30697297    -0.03420
Br2225     Br  0.22195188  0.62123674  0.28243658    -0.01960
Br2226     Br  0.17862666  0.59459367  0.34719046    -0.02030
Br2227     Br  0.31906284  0.53664765  0.31589130    -0.01990
Br2228     Br  0.29760496  0.56461659  0.38553297    -0.01980
C2229       C  0.26439646  0.72035047  0.50013861    -0.03100
C2230       C  0.25825401  0.73676626  0.47089510     0.06580
C2231       C  0.24422046  0.71794170  0.44758502    -0.03220
C2232       C  0.23580189  0.68543417  0.45385989    -0.03220
C2233       C  0.24078713  0.67009488  0.48342534     0.06710
C2234       C  0.25434084  0.68850110  0.50663131    -0.03420
Br2235     Br  0.25902874  0.66953438  0.54844392    -0.01960
Br2236     Br  0.28947730  0.73957220  0.53136804    -0.02030
Br2237     Br  0.21952380  0.66062992  0.42100761    -0.01990
Br2238     Br  0.24108907  0.73356827  0.40473583    -0.01980
C2239       C  0.20959419  0.36453444  0.53873217    -0.03100
C2240       C  0.22988901  0.39105356  0.53402942     0.06580
C2241       C  0.26203373  0.38471387  0.53864631    -0.03220
C2242       C  0.27416874  0.35316998  0.53911912    -0.03220
C2243       C  0.25381522  0.32623482  0.53717667     0.06710
C2244       C  0.22186429  0.33358376  0.54472633    -0.03420
Br2245     Br  0.19912260  0.30596940  0.57450087    -0.01960
Br2246     Br  0.16498919  0.37092117  0.54019983    -0.02030
Br2247     Br  0.31710457  0.34741717  0.55003980    -0.01990
Br2248     Br  0.28700540  0.41979954  0.55020275    -0.01980
C2249       C  0.50344672  0.69155137  0.79308946    -0.03100
C2250       C  0.51733159  0.66913787  0.77342522     0.06580
C2251       C  0.52399038  0.68307046  0.74320389    -0.03220
C2252       C  0.53643312  0.71415944  0.74070668    -0.03220
C2253       C  0.52010520  0.73764762  0.75601033     0.06710
C2254       C  0.50087878  0.72446423  0.78212567    -0.03420
Br2255     Br  0.46342915  0.74483452  0.79488058    -0.01960
Br2256     Br  0.48213996  0.67623896  0.83112098    -0.02030
Br2257     Br  0.58050682  0.71986698  0.73294952    -0.01990
Br2258     Br  0.48551515  0.68223749  0.72028991    -0.01980
C2259       C  0.67900763  0.52606369  0.77104581    -0.03100
C2260       C  0.66100570  0.55025705  0.78375239     0.06580
C2261       C  0.67651052  0.57958839  0.78499757    -0.03220
C2262       C  0.70852071  0.58433948  0.77335227    -0.03220
C2263       C  0.72497735  0.56079466  0.75665597     0.06710
C2264       C  0.70719944  0.53250371  0.75354581    -0.03420
Br2265     Br  0.71785447  0.50118865  0.72467292    -0.01960
Br2266     Br  0.66365611  0.48273864  0.77629960    -0.02030
Br2267     Br  0.72703064  0.62524639  0.77679532    -0.01990
Br2268     Br  0.65321302  0.61321645  0.80190176    -0.01980
C2269       C  0.36966656  0.46820518  0.76447464    -0.03100
C2270       C  0.38041904  0.49340150  0.78195755     0.06580
C2271       C  0.35945202  0.51836385  0.78516400    -0.03220
C2272       C  0.33191710  0.52112461  0.76683565    -0.03220
C2273       C  0.32065102  0.49583387  0.74919528     0.06710
C2274       C  0.33992336  0.46885730  0.74914562    -0.03420
Br2275     Br  0.32628897  0.43245549  0.72782361    -0.01960
Br2276     Br  0.39714561  0.43334354  0.76027811    -0.02030
Br2277     Br  0.31347873  0.56209568  0.76257597    -0.01990
Br2278     Br  0.37181909  0.55178020  0.81142738    -0.01980
C2279       C  0.49233401  0.38446757  0.74350404    -0.03100
C2280       C  0.50876961  0.39052138  0.77108138     0.06580
C2281       C  0.52327387  0.36467283  0.78646871    -0.03220
C2282       C  0.52183404  0.33407610  0.77441386    -0.03220
C2283       C  0.50191783  0.32658504  0.74899845     0.06710
C2284       C  0.49134782  0.35396997  0.73119087    -0.03420
Br2285     Br  0.48877667  0.35533475  0.68600587    -0.01960
Br2286     Br  0.47412098  0.41968972  0.72024445    -0.02030
Br2287     Br  0.55820860  0.30926191  0.78260517    -0.01990
Br2288     Br  0.54823412  0.37209685  0.82280963    -0.01980
C2289       C  0.38510001  0.48229221  0.62944674    -0.03100
C2290       C  0.41343947  0.49906307  0.62596467     0.06580
C2291       C  0.42635260  0.50738774  0.59577700    -0.03220
C2292       C  0.41175505  0.49677882  0.56941103    -0.03220
C2293       C  0.38140951  0.48365399  0.57282181     0.06710
C2294       C  0.36818754  0.47579888  0.60278617    -0.03420
Br2295     Br  0.32574960  0.45962123  0.60746729    -0.01960
Br2296     Br  0.36945282  0.46937118  0.67043575    -0.02030
Br2297     Br  0.43119773  0.50515086  0.52832980    -0.01990
Br2298     Br  0.46174896  0.53657515  0.58960442    -0.01980
C2299       C  0.77549021  0.67292145  0.53192825    -0.03100
C2300       C  0.76777300  0.65790576  0.50417182     0.06580
C2301       C  0.75252615  0.67631946  0.48101066    -0.03220
C2302       C  0.73737890  0.70391436  0.48852267    -0.03220
C2303       C  0.74620000  0.72129765  0.51457737     0.06710
C2304       C  0.76522493  0.70432494  0.53697699    -0.03420
Br2305     Br  0.77262163  0.72091275  0.57717675    -0.01960
Br2306     Br  0.80278514  0.65183412  0.56118228    -0.02030
Br2307     Br  0.69568636  0.70351006  0.47370673    -0.01990
Br2308     Br  0.75050452  0.66348704  0.43818179    -0.01980
C2309       C  0.77916812  0.58350513  0.65774921    -0.03100
C2310       C  0.79335822  0.55623985  0.64724752     0.06580
C2311       C  0.80102158  0.53320805  0.67061500    -0.03220
C2312       C  0.78931421  0.53412759  0.70207084    -0.03220
C2313       C  0.77345801  0.56102101  0.71302515     0.06710
C2314       C  0.77082406  0.58659528  0.69017223    -0.03420
Br2315     Br  0.75122531  0.62478043  0.70101868    -0.01960
Br2316     Br  0.76713735  0.61499230  0.62673928    -0.02030
Br2317     Br  0.79147500  0.49523183  0.72666528    -0.01990
Br2318     Br  0.82480346  0.49778748  0.65749086    -0.01980
C2319       C  0.78164441  0.36000734  0.55161752    -0.03100
C2320       C  0.78099877  0.38012963  0.52426653     0.06580
C2321       C  0.76811108  0.36768672  0.49742497    -0.03220
C2322       C  0.75111704  0.33833468  0.49936928    -0.03220
C2323       C  0.75049083  0.31799152  0.52726983     0.06710
C2324       C  0.76600855  0.33028043  0.55358587    -0.03420
Br2325     Br  0.76494496  0.30856905  0.59416040    -0.01960
Br2326     Br  0.80609580  0.37333220  0.58660236    -0.02030
Br2327     Br  0.72950714  0.32713835  0.46264129    -0.01990
Br2328     Br  0.77903029  0.38841390  0.45728416    -0.01980
C2329       C  0.77634316  0.49112356  0.35210342    -0.03100
C2330       C  0.77451983  0.51755418  0.37048003     0.06580
C2331       C  0.76140464  0.54488672  0.35554329    -0.03220
C2332       C  0.74803573  0.54502822  0.32493896    -0.03220
C2333       C  0.74959532  0.51845054  0.30629208     0.06710
C2334       C  0.76297000  0.49100282  0.32136019    -0.03420
Br2335     Br  0.75873592  0.45124817  0.30261554    -0.01960
Br2336     Br  0.79763750  0.45488467  0.36949001    -0.02030
Br2337     Br  0.72597128  0.58185461  0.30986353    -0.01990
Br2338     Br  0.76133318  0.58297280  0.37803617    -0.01980
C2339       C  0.67136643  0.58080719  0.65594744    -0.03100
C2340       C  0.65655336  0.57194829  0.62799425     0.06580
C2341       C  0.63189853  0.59152640  0.61572545    -0.03220
C2342       C  0.62299633  0.61611820  0.63390519    -0.03220
C2343       C  0.62547161  0.60911967  0.66623648     0.06710
C2344       C  0.65612540  0.60275988  0.67413183    -0.03420
Br2345     Br  0.66981732  0.61566439  0.71358539    -0.01960
Br2346     Br  0.70573653  0.55902977  0.67304069    -0.02030
Br2347     Br  0.59736890  0.64910129  0.61666571    -0.01990
Br2348     Br  0.59975079  0.57949632  0.58671795    -0.01980
C2349       C  0.65936153  0.78865785  0.48623223    -0.03100
C2350       C  0.64466715  0.80076798  0.51397487     0.06580
C2351       C  0.66046957  0.79436468  0.54257203    -0.03220
C2352       C  0.69031602  0.77893061  0.54321369    -0.03220
C2353       C  0.70533943  0.76875953  0.51534803     0.06710
C2354       C  0.68965514  0.77499677  0.48678651    -0.03420
Br2355     Br  0.71251944  0.77166366  0.44679270    -0.01960
Br2356     Br  0.63774083  0.78520860  0.44666096    -0.02030
Br2357     Br  0.71282043  0.77623623  0.58196190    -0.01990
Br2358     Br  0.64107720  0.80632469  0.58107117    -0.01980
C2359       C  0.53590214  0.80667791  0.65432174    -0.03100
C2360       C  0.50473867  0.80724726  0.64250049     0.06580
C2361       C  0.48089852  0.79468063  0.66394764    -0.03220
C2362       C  0.48813603  0.77855666  0.69320324    -0.03220
C2363       C  0.51848896  0.78044956  0.70640608     0.06710
C2364       C  0.54245981  0.79461787  0.68590573    -0.03420
Br2365     Br  0.58497175  0.79711529  0.70056975    -0.01960
Br2366     Br  0.56980315  0.82360817  0.62792590    -0.02030
Br2367     Br  0.45432468  0.75735132  0.71700148    -0.01990
Br2368     Br  0.43694833  0.80386726  0.65642125    -0.01980
C2369       C  0.35745035  0.78040291  0.45274562    -0.03100
C2370       C  0.36739634  0.80321403  0.47328330     0.06580
C2371       C  0.34390843  0.81610245  0.49217169    -0.03220
C2372       C  0.31153886  0.80647685  0.49060370    -0.03220
C2373       C  0.30102720  0.78415694  0.46866533     0.06710
C2374       C  0.32523086  0.77196587  0.44949153    -0.03420
Br2375     Br  0.31555121  0.74615195  0.41550322    -0.01960
Br2376     Br  0.38882764  0.75752480  0.43124552    -0.02030
Br2377     Br  0.28318445  0.82425669  0.52015826    -0.01990
Br2378     Br  0.35721795  0.84531294  0.52259469    -0.01980
C2379       C  0.53279104  0.80069022  0.34250102    -0.03100
C2380       C  0.50744164  0.79467696  0.36390800     0.06580
C2381       C  0.48549726  0.77126814  0.35660276    -0.03220
C2382       C  0.48901070  0.75355542  0.32941326    -0.03220
C2383       C  0.51306589  0.76123164  0.30667624     0.06710
C2384       C  0.53636611  0.78339169  0.31527017    -0.03420
Br2385     Br  0.57593728  0.78722762  0.29308083    -0.01960
Br2386     Br  0.56353417  0.83283879  0.35127233    -0.02030
Br2387     Br  0.46055622  0.71886479  0.32411748    -0.01990
Br2388     Br  0.44920017  0.76546175  0.38295292    -0.01980
C2389       C  0.43233428  0.63662234  0.45200605    -0.03100
C2390       C  0.42037939  0.66239931  0.46842432     0.06580
C2391       C  0.38862533  0.67135420  0.46346541    -0.03220
C2392       C  0.37021764  0.65540893  0.44231570    -0.03220
C2393       C  0.38002421  0.62625824  0.43260846     0.06710
C2394       C  0.41196575  0.61882125  0.43395494    -0.03420
Br2395     Br  0.42684050  0.58213474  0.41392745    -0.01960
Br2396     Br  0.47489471  0.62156938  0.45639288    -0.02030
Br2397     Br  0.32749424  0.66788986  0.43364764    -0.01990
Br2398     Br  0.36655305  0.69994176  0.48961787    -0.01980
C2399       C  0.54457885  0.70773083  0.65948419    -0.03100
C2400       C  0.51752414  0.72198888  0.64737946     0.06580
C2401       C  0.48837025  0.70533217  0.64993623    -0.03220
C2402       C  0.48989520  0.67372749  0.64542614    -0.03220
C2403       C  0.51733992  0.65869584  0.65455737     0.06710
C2404       C  0.54319169  0.67541193  0.66583124    -0.03420
Br2405     Br  0.57404672  0.65482969  0.69181573    -0.01960
Br2406     Br  0.58506936  0.72830872  0.65329855    -0.02030
Br2407     Br  0.45398374  0.65051100  0.63038497    -0.01990
Br2408     Br  0.44757758  0.72439616  0.64610696    -0.01980
C2409       C  0.66469045  0.64776710  0.55540427    -0.03100
C2410       C  0.64923043  0.63056325  0.53281505     0.06580
C2411       C  0.63181897  0.64539076  0.50918544    -0.03220
C2412       C  0.63154719  0.67763604  0.50707024    -0.03220
C2413       C  0.64164381  0.69467463  0.53263711     0.06710
C2414       C  0.65828454  0.67964758  0.55707313    -0.03420
Br2415     Br  0.67103154  0.70216716  0.59267339    -0.01960
Br2416     Br  0.69581211  0.62858772  0.58199134    -0.02030
Br2417     Br  0.61831012  0.69771909  0.46839052    -0.01990
Br2418     Br  0.61048406  0.62154527  0.47806476    -0.01980
C2419       C  0.67132384  0.55687490  0.22009946    -0.03100
C2420       C  0.64425275  0.54557594  0.23727492     0.06580
C2421       C  0.65072257  0.53232497  0.26740021    -0.03220
C2422       C  0.68038230  0.51914433  0.27414376    -0.03220
C2423       C  0.70799922  0.53164537  0.25919836     0.06710
C2424       C  0.70214092  0.55444903  0.23386558    -0.03420
Br2425     Br  0.73256395  0.58694149  0.22260078    -0.01960
Br2426     Br  0.66628573  0.57658574  0.17908015    -0.02030
Br2427     Br  0.67999981  0.47700638  0.29166427    -0.01990
Br2428     Br  0.62993561  0.55243227  0.30051978    -0.01980
C2429       C  0.33991988  0.52276802  0.21912771    -0.03100
C2430       C  0.36419261  0.54482279  0.22364873     0.06580
C2431       C  0.35511365  0.57304756  0.23739134    -0.03220
C2432       C  0.32408035  0.57742843  0.24970768    -0.03220
C2433       C  0.29979802  0.55434768  0.24727837     0.06710
C2434       C  0.30854076  0.52695102  0.23102682    -0.03420
Br2435     Br  0.27935414  0.49260492  0.22677306    -0.01960
Br2436     Br  0.35032135  0.48639279  0.19645022    -0.02030
Br2437     Br  0.31576575  0.61498758  0.27159850    -0.01990
Br2438     Br  0.38642595  0.60605919  0.24020475    -0.01980
C2439       C  0.51071197  0.35486084  0.23165667    -0.03100
C2440       C  0.48699838  0.37805973  0.22979472     0.06580
C2441       C  0.45683632  0.36686090  0.23996971    -0.03220
C2442       C  0.45121970  0.33489830  0.25323256    -0.03220
C2443       C  0.47607048  0.31199758  0.25849851     0.06710
C2444       C  0.50615596  0.32456348  0.24766380    -0.03420
Br2445     Br  0.54401903  0.30286908  0.25656379    -0.01960
Br2446     Br  0.55005620  0.36314484  0.20862062    -0.02030
Br2447     Br  0.40829523  0.32580924  0.26439248    -0.01990
Br2448     Br  0.42266857  0.39547379  0.23342278    -0.01980
C2449       C  0.48938099  0.67821972  0.22812171    -0.03100
C2450       C  0.51513722  0.65861127  0.23371956     0.06580
C2451       C  0.53867696  0.66878910  0.25402471    -0.03220
C2452       C  0.53613599  0.69759496  0.26908018    -0.03220
C2453       C  0.51025969  0.71760684  0.26316477     0.06710
C2454       C  0.48573825  0.70584364  0.24447449    -0.03420
Br2455     Br  0.44436836  0.72334337  0.24590319    -0.01960
Br2456     Br  0.45706621  0.66498392  0.20008942    -0.02030
Br2457     Br  0.56661993  0.70704043  0.30019298    -0.01990
Br2458     Br  0.57356558  0.64151634  0.26259586    -0.01980
C2459       C  0.35757557  0.43504678  0.37201277    -0.03100
C2460       C  0.33479014  0.44931309  0.35274674     0.06580
C2461       C  0.34184173  0.45318072  0.32085739    -0.03220
C2462       C  0.37356244  0.45491422  0.31136932    -0.03220
C2463       C  0.39683076  0.45234116  0.33451179     0.06710
C2464       C  0.38927548  0.43711122  0.36342915    -0.03420
Br2465     Br  0.42123246  0.42582787  0.39379538    -0.01960
Br2466     Br  0.34750116  0.42445326  0.41382633    -0.02030
Br2467     Br  0.38549027  0.46276251  0.26822120    -0.01990
Br2468     Br  0.30820098  0.45663196  0.29207808    -0.01980
C2469       C  0.50727119  0.64684559  0.37199426    -0.03100
C2470       C  0.53174744  0.62768071  0.36171413     0.06580
C2471       C  0.56341171  0.63558611  0.36661986    -0.03220
C2472       C  0.57046940  0.65976308  0.38617136    -0.03220
C2473       C  0.54564034  0.67470584  0.40096969     0.06710
C2474       C  0.51443561  0.67030170  0.39211871    -0.03420
Br2475     Br  0.48150559  0.69512602  0.40951550    -0.01960
Br2476     Br  0.46364520  0.64005818  0.36150394    -0.02030
Br2477     Br  0.61357762  0.67153333  0.39320195    -0.01990
Br2478     Br  0.59676230  0.61371906  0.34650330    -0.01980
C2479       C  0.67371201  0.45021326  0.39067798    -0.03100
C2480       C  0.65553909  0.44437880  0.41800472     0.06580
C2481       C  0.62377832  0.43655247  0.41436147    -0.03220
C2482       C  0.60957724  0.44698723  0.38641368    -0.03220
C2483       C  0.62735377  0.46710677  0.36486509     0.06710
C2484       C  0.65996626  0.47019848  0.36829849    -0.03420
Br2485     Br  0.68070252  0.51007081  0.35846301    -0.01960
Br2486     Br  0.71838726  0.44657597  0.39241133    -0.02030
Br2487     Br  0.56541962  0.43850363  0.38146723    -0.01990
Br2488     Br  0.59851082  0.42109262  0.44991725    -0.01980
C2489       C  0.52698892  0.25894409  0.66352416    -0.03100
C2490       C  0.50100503  0.26126514  0.64362076     0.06580
C2491       C  0.47290725  0.27425945  0.65543574    -0.03220
C2492       C  0.47108738  0.28547004  0.68607814    -0.03220
C2493       C  0.49733415  0.28338291  0.70613077     0.06710
C2494       C  0.52510444  0.26939089  0.69455569    -0.03420
Br2495     Br  0.56082166  0.26334739  0.72091056    -0.01960
Br2496     Br  0.56541363  0.24180828  0.64777510    -0.02030
Br2497     Br  0.43207018  0.30346734  0.70084087    -0.01990
Br2498     Br  0.43618115  0.27653415  0.62945211    -0.01980
C2499       C  0.45090266  0.24490516  0.35879265    -0.03100
C2500       C  0.47781129  0.22804327  0.36843363     0.06580
C2501       C  0.50062703  0.22410385  0.34389396    -0.03220
C2502       C  0.49956218  0.24068770  0.31366888    -0.03220
C2503       C  0.47345992  0.25975223  0.30384988     0.06710
C2504       C  0.44788373  0.25853898  0.32696189    -0.03420
Br2505     Br  0.40600486  0.26964272  0.31524396    -0.01960
Br2506     Br  0.41739932  0.24825497  0.38927518    -0.02030
Br2507     Br  0.53340275  0.23186913  0.28481633    -0.01990
Br2508     Br  0.53351292  0.19322671  0.35035642    -0.01980
C2509       C  0.34568696  0.25773461  0.50094956    -0.03100
C2510       C  0.36131394  0.24940696  0.52875073     0.06580
C2511       C  0.34561896  0.25640797  0.55727529    -0.03220
C2512       C  0.31566682  0.27165918  0.55781100    -0.03220
C2513       C  0.30011696  0.28085075  0.52948042     0.06710
C2514       C  0.31691997  0.27436157  0.50128883    -0.03420
Br2515     Br  0.30352864  0.29136125  0.46215855    -0.01960
Br2516     Br  0.36549632  0.24774956  0.46171764    -0.02030
Br2517     Br  0.29796158  0.28303316  0.59759707    -0.01990
Br2518     Br  0.36561957  0.24460475  0.59610968    -0.01980
C2519       C  0.66779827  0.23489253  0.49815464    -0.03100
C2520       C  0.64408773  0.23775917  0.52173923     0.06580
C2521       C  0.65322644  0.25417075  0.54804636    -0.03220
C2522       C  0.68327801  0.27040096  0.54882769    -0.03220
C2523       C  0.70647959  0.26966900  0.52389952     0.06710
C2524       C  0.69696018  0.25198612  0.49799735    -0.03420
Br2525     Br  0.72126163  0.25271944  0.45944234    -0.01960
Br2526     Br  0.66107441  0.20510950  0.46602626    -0.02030
Br2527     Br  0.69114879  0.29379971  0.58482137    -0.01990
Br2528     Br  0.62525517  0.25230296  0.58409289    -0.01980
C2529       C  0.46516157  0.33393128  0.33742688    -0.03100
C2530       C  0.49017105  0.31355407  0.34427002     0.06580
C2531       C  0.52009808  0.31919721  0.32988125    -0.03220
C2532       C  0.52804075  0.35016697  0.32177219    -0.03220
C2533       C  0.50411677  0.37240688  0.32197420     0.06710
C2534       C  0.47249953  0.36373345  0.32497029    -0.03420
Br2535     Br  0.44011693  0.39362303  0.31604333    -0.01960
Br2536     Br  0.42544483  0.32883760  0.35926461    -0.02030
Br2537     Br  0.57217926  0.36260419  0.31698482    -0.01990
Br2538     Br  0.55458057  0.29003896  0.33510872    -0.01980
C2539       C  0.33710816  0.36430572  0.45801225    -0.03100
C2540       C  0.33695446  0.38318389  0.48433146     0.06580
C2541       C  0.36509705  0.38769495  0.50093785    -0.03220
C2542       C  0.39336460  0.38354464  0.48539049    -0.03220
C2543       C  0.39404397  0.36415460  0.45985550     0.06710
C2544       C  0.36590296  0.35275127  0.44755556    -0.03420
Br2545     Br  0.36708725  0.32363556  0.41487171    -0.01960
Br2546     Br  0.30143061  0.36192476  0.43028543    -0.02030
Br2547     Br  0.43166776  0.40195621  0.50120004    -0.01990
Br2548     Br  0.36608141  0.40929371  0.53983419    -0.01980
C2549       C  0.52896501  0.40976711  0.57960102    -0.03100
C2550       C  0.55110935  0.38569124  0.57887418     0.06580
C2551       C  0.56236645  0.37233853  0.60782665    -0.03220
C2552       C  0.55763993  0.38807003  0.63552240    -0.03220
C2553       C  0.53550875  0.41203996  0.63522437     0.06710
C2554       C  0.51716680  0.41765572  0.60849768    -0.03420
Br2555     Br  0.47486460  0.43344093  0.61207734    -0.01960
Br2556     Br  0.50889495  0.42679623  0.54215174    -0.02030
Br2557     Br  0.57714427  0.37352764  0.67402982    -0.01990
Br2558     Br  0.57556953  0.32926670  0.61180813    -0.01980
C2559       C  0.66594555  0.36185420  0.46982311    -0.03100
C2560       C  0.64393778  0.33974136  0.48223784     0.06580
C2561       C  0.63858595  0.33534974  0.51497930    -0.03220
C2562       C  0.65456961  0.35441064  0.53519538    -0.03220
C2563       C  0.67447416  0.37811408  0.52250941     0.06710
C2564       C  0.68163616  0.38099388  0.49021287    -0.03420
Br2565     Br  0.70789782  0.41536304  0.47392217    -0.01960
Br2566     Br  0.67108974  0.36821333  0.42473650    -0.02030
Br2567     Br  0.64316711  0.35501317  0.57907104    -0.01990
Br2568     Br  0.60266364  0.31094260  0.53112055    -0.01980
loop_ 
_geom_bond_atom_site_label_1 
_geom_bond_atom_site_label_2 
_geom_bond_distance 
_geom_bond_site_symmetry_2 
_ccdc_geom_bond_type 
N1            N2   1.298       .  A
N1            N7   1.305       .  A
N1          Mn30   2.092       .  S
N2            C9   1.329       .  A
N3            N5   1.301       .  A
N3            N4   1.322       .  A
N3          Mn19   2.160       .  S
N4           C10   1.358       .  A
N5            N6   1.302       .  A
N5          Mn30   2.096       .  S
N6           C10   1.337       .  A
N7            N8   1.326       .  A
N7          Mn19   2.184       .  S
N8            C9   1.364       .  A
C9         C2550   1.437       .  S
C10        C2543   1.431       .  S
N11          N17   1.310       .  A
N11          N12   1.304       .  A
N11         Mn41   2.152       .  S
N12          C20   1.338       .  A
N13          N14   1.305       .  A
N13          N15   1.310       .  A
N13         Mn19   2.138       .  S
N14          C21   1.342       .  A
N15          N16   1.317       .  A
N15         Mn41   2.161       .  S
N16          C21   1.345       .  A
N17          N18   1.307       .  A
N17         Mn19   2.114       .  S
N18          C20   1.347       .  A
Mn19        Cl43   2.563       .  S
C20        C2530   1.427       .  S
C21        C2560   1.433       .  S
N22          N23   1.311       .  A
N22          N28   1.310       .  A
N22         Mn30   2.099       .  S
N23          C31   1.329       .  A
N24          N26   1.310       .  A
N24          N25   1.342       .  A
N24         Mn42   2.335       .  S
N25          C32   1.382       .  A
N26          N27   1.305       .  A
N26         Mn30   2.090       .  S
N27          C32   1.328       .  A
N28          N29   1.349       .  A
N28         Mn42   2.373       .  S
N29          C31   1.391       .  A
Mn30        Cl43   2.453       .  S
C31        C2510   1.525       .  S
C32        C2490   1.499       .  S
N33          N34   1.306       .  A
N33          N39   1.317       .  A
N33         Mn41   2.071       .  S
N34          C44   1.327       .  A
N35          N36   1.360       .  A
N35          N37   1.309       .  A
N35         Mn42   2.432       .  S
N36          C45   1.399       .  A
N37          N38   1.306       .  A
N37         Mn41   2.116       .  S
N38          C45   1.329       .  A
N39          N40   1.357       .  A
N39         Mn42   2.449       .  S
N40          C44   1.395       .  A
Mn41        Cl43   2.527       .  S
Mn42        Cl43   2.477       .  S
C44        C2520   1.548       .  S
C45        C2500   1.576       .  S
N46          N47   1.318       .  A
N46          N52   1.306       .  A
N46         Mn75   2.170       .  S
N47          C54   1.354       .  A
N48          N50   1.320       .  A
N48          N49   1.317       .  A
N48         Mn64   2.186       .  S
N49          C55   1.347       .  A
N50          N51   1.311       .  A
N50         Mn75   2.157       .  S
N51          C55   1.339       .  A
N52          N53   1.293       .  A
N52         Mn64   2.050       .  S
N53          C54   1.317       .  A
C54        C2533   1.407       .  S
C55        C2483   1.446       .  S
N56          N62   1.309       .  A
N56          N57   1.357       .  A
N56         Mn86   2.453       .  S
N57          C65   1.398       .  A
N58          N59   1.310       .  A
N58          N60   1.314       .  A
N58         Mn64   2.114       .  S
N59          C66   1.328       .  A
N60          N61   1.363       .  A
N60         Mn86   2.456       .  S
N61          C66   1.403       .  A
N62          N63   1.306       .  A
N62         Mn64   2.063       .  S
N63          C65   1.325       .  A
Mn64        Cl88   2.564       .  S
C65        C2420   1.538       .  S
C66        C2440   1.580       .  S
N67          N68   1.320       .  A
N67          N73   1.304       .  A
N67         Mn75   2.179       .  S
N68          C76   1.357       .  A
N69          N71   1.308       .  A
N69          N70   1.311       .  A
N69         Mn87   2.126       .  S
N70          C77   1.339       .  A
N71          N72   1.317       .  A
N71         Mn75   2.162       .  S
N72          C77   1.347       .  A
N73          N74   1.304       .  A
N73         Mn87   2.097       .  S
N74          C76   1.333       .  A
Mn75        Cl88   2.506       .  S
C76        C2470   1.441       .  S
C77        C2463   1.454       .  S
N78          N79   1.354       .  A
N78          N84   1.314       .  A
N78         Mn86   2.403       .  S
N79          C89   1.393       .  A
N80          N81   1.306       .  A
N80          N82   1.315       .  A
N80         Mn87   2.125       .  S
N81          C90   1.331       .  A
N82          N83   1.339       .  A
N82         Mn86   2.300       .  S
N83          C90   1.375       .  A
N84          N85   1.306       .  A
N84         Mn87   2.084       .  S
N85          C89   1.324       .  A
Mn86        Cl88   2.470       .  S
Mn87        Cl88   2.498       .  S
C89        C2430   1.531       .  S
C90        C2450   1.486       .  S
N91          N92   1.316       .  A
N91          N97   1.309       .  A
N91        Mn120   2.195       .  S
N92          C99   1.353       .  A
N93          N95   1.299       .  A
N93          N94   1.316       .  A
N93        Mn109   2.116       .  S
N94         C100   1.355       .  A
N95          N96   1.299       .  A
N95        Mn120   2.089       .  S
N96         C100   1.325       .  A
N97          N98   1.315       .  A
N97        Mn109   2.161       .  S
N98          C99   1.349       .  A
C99        C2390   1.493       .  S
C100       C2400   1.430       .  S
N101        N107   1.313       .  A
N101        N102   1.314       .  A
N101       Mn131   2.242       .  S
N102        C110   1.346       .  A
N103        N104   1.313       .  A
N103        N105   1.309       .  A
N103       Mn109   2.159       .  S
N104        C111   1.351       .  A
N105        N106   1.313       .  A
N105       Mn131   2.131       .  S
N106        C111   1.339       .  A
N107        N108   1.309       .  A
N107       Mn109   2.133       .  S
N108        C110   1.337       .  A
Mn109      Cl133   2.471       .  S
C110       C2413   1.440       .  S
C111       C2473   1.431       .  S
N112        N113   1.314       .  A
N112        N118   1.310       .  A
N112       Mn120   2.183       .  S
N113        C121   1.342       .  A
N114        N116   1.312       .  A
N114        N115   1.346       .  A
N114       Mn132   2.399       .  S
N115        C122   1.387       .  A
N116        N117   1.308       .  A
N116       Mn120   2.060       .  S
N117        C122   1.330       .  A
N118        N119   1.352       .  A
N118       Mn132   2.359       .  S
N119        C121   1.389       .  A
Mn120      Cl133   2.541       .  S
C121       C2360   1.568       .  S
C122       C2370   1.513       .  S
N123        N124   1.303       .  A
N123        N129   1.313       .  A
N123       Mn131   2.051       .  S
N124        C134   1.328       .  A
N125        N126   1.355       .  A
N125        N127   1.292       .  A
N125       Mn132   2.406       .  S
N126        C135   1.400       .  A
N127        N128   1.306       .  A
N127       Mn131   2.218       .  S
N128        C135   1.324       .  A
N129        N130   1.346       .  A
N129       Mn132   2.394       .  S
N130        C134   1.386       .  A
Mn131      Cl133   2.586       .  S
Mn132      Cl133   2.340       .  S
C134       C2380   1.505       .  S
C135       C2350   1.556       .  S
N136        N137   1.308       .  A
N136        N142   1.309       .  A
N136       Mn165   2.163       .  S
N137        C144   1.348       .  A
N138        N140   1.307       .  A
N138        N139   1.313       .  A
N138       Mn154   2.170       .  S
N139        C145   1.343       .  A
N140        N141   1.304       .  A
N140       Mn165   2.075       .  S
N141        C145   1.330       .  A
N142        N143   1.316       .  A
N142       Mn154   2.128       .  S
N143        C144   1.344       .  A
C144       C2480   1.460       .  S
C145       C2410   1.420       .  S
N146        N152   1.307       .  A
N146        N147   1.319       .  A
N146       Mn176   2.199       .  S
N147        C155   1.357       .  A
N148        N149   1.307       .  A
N148        N150   1.310       .  A
N148       Mn154   2.127       .  S
N149        C156   1.342       .  A
N150        N151   1.316       .  A
N150       Mn176   2.168       .  S
N151        C156   1.343       .  A
N152        N153   1.301       .  A
N152       Mn154   2.097       .  S
N153        C155   1.330       .  A
Mn154      Cl178   2.588       .  S
C155       C2340   1.463       .  S
C156       C2563   1.433       .  S
N157        N158   1.314       .  A
N157        N163   1.315       .  A
N157       Mn165   2.205       .  S
N158        C166   1.347       .  A
N159        N161   1.312       .  A
N159        N160   1.356       .  A
N159       Mn177   2.412       .  S
N160        C167   1.396       .  A
N161        N162   1.306       .  A
N161       Mn165   2.078       .  S
N162        C167   1.323       .  A
N163        N164   1.343       .  A
N163       Mn177   2.290       .  S
N164        C166   1.375       .  A
Mn165      Cl178   2.477       .  S
C166       C2300   1.528       .  S
C167       C2330   1.535       .  S
N168        N169   1.307       .  A
N168        N174   1.322       .  A
N168       Mn176   2.155       .  S
N169        C179   1.332       .  A
N170        N171   1.350       .  A
N170        N172   1.318       .  A
N170       Mn177   2.388       .  S
N171        C180   1.386       .  A
N172        N173   1.308       .  A
N172       Mn176   2.098       .  S
N173        C180   1.328       .  A
N174        N175   1.347       .  A
N174       Mn177   2.353       .  S
N175        C179   1.382       .  A
Mn176      Cl178   2.489       .  S
Mn177      Cl178   2.567       .  S
C179       C2320   1.519       .  S
C180       C2310   1.518       .  S
N181        N182   1.324       .  A
N181        N187   1.297       .  A
N181       Mn210   2.152       .  S
N182        C189   1.357       .  A
N183        N185   1.309       .  A
N183        N184   1.308       .  A
N183       Mn199   2.105       .  S
N184        C190   1.336       .  A
N185        N186   1.330       .  A
N185       Mn210   2.238       .  S
N186        C190   1.363       .  A
N187        N188   1.296       .  A
N187       Mn199   2.086       .  S
N188        C189   1.338       .  A
C189       C2553   1.455       .  S
C190       C2343   1.498       .  S
N191        N197   1.302       .  A
N191        N192   1.294       .  A
N191       Mn221   2.065       .  S
N192        C200   1.332       .  A
N193        N194   1.296       .  A
N193        N195   1.307       .  A
N193       Mn199   2.088       .  S
N194        C201   1.329       .  A
N195        N196   1.323       .  A
N195       Mn221   2.205       .  S
N196        C201   1.361       .  A
N197        N198   1.313       .  A
N197       Mn199   2.115       .  S
N198        C200   1.338       .  A
Mn199      Cl223   2.496       .  S
C200       C2403   1.393       .  S
C201       C2290   1.441       .  S
N202        N203   1.293       .  A
N202        N208   1.309       .  A
N202       Mn210   2.042       .  S
N203        C211   1.313       .  A
N204        N206   1.324       .  A
N204        N205   1.343       .  A
N204       Mn222   2.353       .  S
N205        C212   1.377       .  A
N206        N207   1.318       .  A
N206       Mn210   2.181       .  S
N207        C212   1.342       .  A
N208        N209   1.359       .  A
N208       Mn222   2.397       .  S
N209        C211   1.397       .  A
Mn210      Cl223   2.507       .  S
C211       C2260   1.531       .  S
C212       C2280   1.524       .  S
N213        N214   1.301       .  A
N213        N219   1.312       .  A
N213       Mn221   2.044       .  S
N214        C224   1.320       .  A
N215        N216   1.353       .  A
N215        N217   1.320       .  A
N215       Mn222   2.382       .  S
N216        C225   1.389       .  A
N217        N218   1.317       .  A
N217       Mn221   2.196       .  S
N218        C225   1.343       .  A
N219        N220   1.350       .  A
N219       Mn222   2.387       .  S
N220        C224   1.389       .  A
Mn221      Cl223   2.519       .  S
Mn222      Cl223   2.531       .  S
C224       C2270   1.505       .  S
C225       C2250   1.562       .  S
N226        N227   1.294       .  A
N226        N232   1.308       .  A
N226       Mn255   2.120       .  S
N227        C234   1.338       .  A
N228        N230   1.316       .  A
N228        N229   1.324       .  A
N228       Mn244   2.179       .  S
N229        C235   1.347       .  A
N230        N231   1.314       .  A
N230       Mn255   2.188       .  S
N231        C235   1.350       .  A
N232        N233   1.321       .  A
N232       Mn244   2.156       .  S
N233        C234   1.356       .  A
C234       C2540   1.446       .  S
C235       C2460   1.472       .  S
N236        N242   1.325       .  A
N236        N237   1.350       .  A
N236       Mn266   2.404       .  S
N237        C245   1.382       .  A
N238        N239   1.322       .  A
N238        N240   1.314       .  A
N238       Mn244   2.128       .  S
N239        C246   1.336       .  A
N240        N241   1.354       .  A
N240       Mn266   2.411       .  S
N241        C246   1.391       .  A
N242        N243   1.321       .  A
N242       Mn244   2.145       .  S
N243        C245   1.338       .  A
Mn244      Cl268   2.614       .  S
C245       C2220   1.541       .  S
C246       C2240   1.557       .  S
N247        N248   1.322       .  A
N247        N253   1.311       .  A
N247       Mn255   2.177       .  S
N248        C256   1.357       .  A
N249        N251   1.303       .  A
N249        N250   1.306       .  A
N249       Mn267   2.101       .  S
N250        C257   1.340       .  A
N251        N252   1.316       .  A
N251       Mn255   2.152       .  S
N252        C257   1.348       .  A
N253        N254   1.304       .  A
N253       Mn267   2.159       .  S
N254        C256   1.346       .  A
Mn255      Cl268   2.474       .  S
C256       C2393   1.467       .  S
C257       C2293   1.431       .  S
N258        N259   1.349       .  A
N258        N264   1.313       .  A
N258       Mn266   2.353       .  S
N259        C269   1.387       .  A
N260        N261   1.314       .  A
N260        N262   1.311       .  A
N260       Mn267   2.116       .  S
N261        C270   1.337       .  A
N262        N263   1.349       .  A
N262       Mn266   2.375       .  S
N263        C270   1.388       .  A
N264        N265   1.315       .  A
N264       Mn267   2.170       .  S
N265        C269   1.343       .  A
Mn266      Cl268   2.442       .  S
Mn267      Cl268   2.529       .  S
C269       C2210   1.553       .  S
C270       C2233   1.535       .  S
N271        N272   1.320       .  A
N271        N277   1.309       .  A
N271       Mn300   2.201       .  S
N272        C279   1.358       .  A
N273        N275   1.307       .  A
N273        N274   1.300       .  A
N273       Mn289   2.085       .  S
N274        C280   1.333       .  A
N275        N276   1.313       .  A
N275       Mn300   2.144       .  S
N276        C280   1.344       .  A
N277        N278   1.295       .  A
N277       Mn289   2.074       .  S
N278        C279   1.331       .  A
C279       C2170   1.421       .  S
C280       C2190   1.409   1_556  S
N281        N287   1.298       .  A
N281        N282   1.307       .  A
N281       Mn311   2.155       .  S
N282        C290   1.350       .  A
N283        N284   1.314       .  A
N283        N285   1.299   1_556  A
N283       Mn289   2.130       .  S
N284        C291   1.351       .  A
N285        N286   1.296       .  A
N285       Mn311   2.084       .  S
N286        C291   1.330   1_554  A
N287        N288   1.312       .  A
N287       Mn289   2.099   1_554  S
N288        C290   1.346       .  A
Mn289      Cl313   2.488       .  S
C290       C2180   1.432       .  S
C291       C2200   1.417   1_556  S
N292        N293   1.306       .  A
N292        N298   1.314   1_556  A
N292       Mn300   2.097       .  S
N293        C301   1.330   1_556  A
N294        N296   1.310       .  A
N294        N295   1.363       .  A
N294       Mn312   2.449   1_556  S
N295        C302   1.398       .  A
N296        N297   1.299       .  A
N296       Mn300   2.072       .  S
N297        C302   1.324       .  A
N298        N299   1.359       .  A
N298       Mn312   2.437       .  S
N299        C301   1.395       .  A
Mn300      Cl313   2.563       .  S
C301       C2130   1.563       .  S
C302       C2160   1.567       .  S
N303        N304   1.312       .  A
N303        N309   1.309       .  A
N303       Mn311   2.126       .  S
N304        C314   1.335       .  A
N305        N306   1.353       .  A
N305        N307   1.306       .  A
N305       Mn312   2.383       .  S
N306        C315   1.394       .  A
N307        N308   1.298       .  A
N307       Mn311   2.052       .  S
N308        C315   1.322       .  A
N309        N310   1.347       .  A
N309       Mn312   2.341       .  S
N310        C314   1.385       .  A
Mn311      Cl313   2.460   1_554  S
Mn312      Cl313   2.408   1_554  S
C314       C2140   1.521       .  S
C315       C2150   1.525       .  S
N316        N317   1.320       .  A
N316        N322   1.307       .  A
N316       Mn345   2.157   1_655  S
N317        C324   1.355       .  A
N318        N320   1.305       .  A
N318        N319   1.298       .  A
N318       Mn334   2.083   1_455  S
N319        C325   1.324       .  A
N320        N321   1.313       .  A
N320       Mn345   2.154       .  S
N321        C325   1.355       .  A
N322        N323   1.303       .  A
N322       Mn334   2.128       .  S
N323        C324   1.330       .  A
C324       C2173   1.424       .  S
C325       C2110   1.417       .  S
N326        N332   1.306   1_455  A
N326        N327   1.363       .  A
N326       Mn356   2.437       .  S
N327        C335   1.402       .  A
N328        N329   1.289       .  A
N328        N330   1.303       .  A
N328       Mn334   2.008       .  S
N329        C336   1.309       .  A
N330        N331   1.369       .  A
N330       Mn356   2.462   1_655  S
N331        C336   1.408       .  A
N332        N333   1.305       .  A
N332       Mn334   2.094       .  S
N333        C335   1.327   1_655  A
Mn334      Cl358   2.469   1_655  S
C335       C2073   1.573       .  S
C336       C2090   1.562       .  S
N337        N338   1.316       .  A
N337        N343   1.306       .  A
N337       Mn345   2.143       .  S
N338        C346   1.354       .  A
N339        N341   1.308       .  A
N339        N340   1.304       .  A
N339       Mn357   2.121       .  S
N340        C347   1.335       .  A
N341        N342   1.317       .  A
N341       Mn345   2.153       .  S
N342        C347   1.353       .  A
N343        N344   1.303       .  A
N343       Mn357   2.137       .  S
N344        C346   1.338       .  A
Mn345      Cl358   2.580       .  S
C346       C2103   1.427       .  S
C347       C2123   1.440       .  S
N348        N349   1.346       .  A
N348        N354   1.317       .  A
N348       Mn356   2.387       .  S
N349        C359   1.385       .  A
N350        N351   1.307       .  A
N350        N352   1.308       .  A
N350       Mn357   2.063       .  S
N351        C360   1.321       .  A
N352        N353   1.357       .  A
N352       Mn356   2.420       .  S
N353        C360   1.398       .  A
N354        N355   1.312       .  A
N354       Mn357   2.108       .  S
N355        C359   1.333       .  A
Mn356      Cl358   2.469       .  S
Mn357      Cl358   2.468       .  S
C359       C2080   1.518       .  S
C360       C2060   1.537       .  S
N361        N362   1.367       .  A
N361        N367   1.297       .  A
N361       Mn390   2.482       .  S
N362        C369   1.409       .  A
N363        N365   1.307       .  A
N363        N364   1.306       .  A
N363       Mn379   2.076       .  S
N364        C370   1.329       .  A
N365        N366   1.362   1_556  A
N365       Mn390   2.455       .  S
N366        C370   1.402   1_554  A
N367        N368   1.314       .  A
N367       Mn379   2.125       .  S
N368        C369   1.331       .  A
C369       C1990   1.607       .  S
C370       C2010   1.580   1_556  S
N371        N377   1.309       .  A
N371        N372   1.313       .  A
N371       Mn401   2.128       .  S
N372        C380   1.347       .  A
N373        N374   1.302       .  A
N373        N375   1.306       .  A
N373       Mn379   2.151       .  S
N374        C381   1.338       .  A
N375        N376   1.306       .  A
N375       Mn401   2.092       .  S
N376        C381   1.339       .  A
N377        N378   1.296       .  A
N377       Mn379   2.089       .  S
N378        C380   1.325       .  A
Mn379      Cl403   2.602       .  S
C380       C2053   1.396       .  S
C381       C2100   1.418       .  S
N382        N383   1.361       .  A
N382        N388   1.311       .  A
N382       Mn390   2.442   1_554  S
N383        C391   1.400       .  A
N384        N386   1.308       .  A
N384        N385   1.304       .  A
N384       Mn402   2.119       .  S
N385        C392   1.325   1_554  A
N386        N387   1.356   1_554  A
N386       Mn390   2.397   1_554  S
N387        C392   1.394       .  A
N388        N389   1.302       .  A
N388       Mn402   2.084       .  S
N389        C391   1.327       .  A
Mn390      Cl403   2.323       .  S
C391       C2000   1.569       .  S
C392       C2020   1.561       .  S
N393        N394   1.301       .  A
N393        N399   1.304   1_556  A
N393       Mn401   2.109       .  S
N394        C404   1.338       .  A
N395        N396   1.302       .  A
N395        N397   1.310       .  A
N395       Mn402   2.157       .  S
N396        C405   1.343       .  A
N397        N398   1.318       .  A
N397       Mn401   2.133   1_554  S
N398        C405   1.347       .  A
N399        N400   1.316       .  A
N399       Mn402   2.154       .  S
N400        C404   1.350   1_554  A
Mn401      Cl403   2.443       .  S
Mn402      Cl403   2.567   1_554  S
C404       C2040   1.428       .  S
C405       C2030   1.437       .  S
N406        N407   1.298       .  A
N406        N412   1.305       .  A
N406       Mn435   2.109   1_655  S
N407        C414   1.335       .  A
N408        N410   1.308   1_655  A
N408        N409   1.318       .  A
N408       Mn424   2.188       .  S
N409        C415   1.352   1_655  A
N410        N411   1.300       .  A
N410       Mn435   2.087       .  S
N411        C415   1.335       .  A
N412        N413   1.318       .  A
N412       Mn424   2.137       .  S
N413        C414   1.350       .  A
C414       C2183   1.434       .  S
C415       C1980   1.433       .  S
N416        N422   1.308   1_455  A
N416        N417   1.354       .  A
N416       Mn446   2.375       .  S
N417        C425   1.392       .  A
N418        N419   1.305       .  A
N418        N420   1.317       .  A
N418       Mn424   2.070       .  S
N419        C426   1.327       .  A
N420        N421   1.351       .  A
N420       Mn446   2.418   1_655  S
N421        C426   1.390       .  A
N422        N423   1.299       .  A
N422       Mn424   2.134       .  S
N423        C425   1.323   1_655  A
Mn424      Cl448   2.557   1_655  S
C425       C1950   1.554       .  S
C426       C1930   1.517       .  S
N427        N428   1.305       .  A
N427        N433   1.303       .  A
N427       Mn435   2.123       .  S
N428        C436   1.347       .  A
N429        N431   1.304       .  A
N429        N430   1.315       .  A
N429       Mn447   2.150       .  S
N430        C437   1.352       .  A
N431        N432   1.309       .  A
N431       Mn435   2.133       .  S
N432        C437   1.340       .  A
N433        N434   1.312       .  A
N433       Mn447   2.161       .  S
N434        C436   1.348       .  A
Mn435      Cl448   2.472       .  S
C436       C2033   1.455       .  S
C437       C1970   1.467   1_455  S
N438        N439   1.350   1_455  A
N438        N444   1.316       .  A
N438       Mn446   2.392       .  S
N439        C449   1.389   1_655  A
N440        N441   1.307       .  A
N440        N442   1.312       .  A
N440       Mn447   2.089       .  S
N441        C450   1.324       .  A
N442        N443   1.350       .  A
N442       Mn446   2.377       .  S
N443        C450   1.389       .  A
N444        N445   1.305       .  A
N444       Mn447   2.100       .  S
N445        C449   1.332       .  A
Mn446      Cl448   2.435       .  S
Mn447      Cl448   2.537       .  S
C449       C1960   1.530       .  S
C450       C1943   1.519       .  S
N451        N452   1.365       .  A
N451        N457   1.298   1_554  A
N451       Mn480   2.463       .  S
N452        C459   1.405       .  A
N453        N455   1.309       .  A
N453        N454   1.305       .  A
N453       Mn469   2.077       .  S
N454        C460   1.329       .  A
N455        N456   1.360   1_655  A
N455       Mn480   2.450   1_556  S
N456        C460   1.397   1_455  A
N457        N458   1.306       .  A
N457       Mn469   2.115       .  S
N458        C459   1.324   1_556  A
C459       C1893   1.589       .  S
C460       C1903   1.564   1_655  S
N461        N467   1.311       .  A
N461        N462   1.302       .  A
N461       Mn491   2.106       .  S
N462        C470   1.339       .  A
N463        N464   1.302       .  A
N463        N465   1.313       .  A
N463       Mn469   2.156       .  S
N464        C471   1.339   1_556  A
N465        N466   1.306   1_556  A
N465       Mn491   2.109       .  S
N466        C471   1.339       .  A
N467        N468   1.309       .  A
N467       Mn469   2.121       .  S
N468        C470   1.332       .  A
Mn469      Cl493   2.598       .  S
C470       C2113   1.404       .  S
C471       C2193   1.407       .  S
N472        N473   1.346       .  A
N472        N478   1.311   1_556  A
N472       Mn480   2.350   1_456  S
N473        C481   1.384       .  A
N474        N476   1.315       .  A
N474        N475   1.311       .  A
N474       Mn492   2.119       .  S
N475        C482   1.335       .  A
N476        N477   1.342   1_455  A
N476       Mn480   2.347   1_455  S
N477        C482   1.380   1_655  A
N478        N479   1.307   1_554  A
N478       Mn492   2.088       .  S
N479        C481   1.328       .  A
Mn480      Cl493   2.375   1_554  S
C481       C1910   1.507       .  S
C482       C1920   1.506   1_455  S
N483        N484   1.312       .  A
N483        N489   1.301   1_655  A
N483       Mn491   2.130   1_554  S
N484        C494   1.348       .  A
N485        N486   1.303       .  A
N485        N487   1.307       .  A
N485       Mn492   2.140   1_556  S
N486        C495   1.342       .  A
N487        N488   1.322       .  A
N487       Mn491   2.179   1_455  S
N488        C495   1.359       .  A
N489        N490   1.310       .  A
N489       Mn492   2.140       .  S
N490        C494   1.348   1_455  A
Mn491      Cl493   2.498       .  S
Mn492      Cl493   2.512   1_454  S
C494       C1973   1.466       .  S
C495       C2043   1.441       .  S
N496        N497   1.312       .  A
N496        N502   1.309       .  A
N496       Mn525   2.157   1_655  S
N497        C504   1.352       .  A
N498        N500   1.302   1_655  A
N498        N499   1.317       .  A
N498       Mn514   2.135       .  S
N499        C505   1.342   1_655  A
N500        N501   1.305       .  A
N500       Mn525   2.117   1_556  S
N501        C505   1.346       .  A
N502        N503   1.306       .  A
N502       Mn514   2.146   1_554  S
N503        C504   1.338       .  A
C504       C2203   1.432       .  S
C505       C2120   1.432       .  S
N506        N512   1.324   1_455  A
N506        N507   1.353       .  A
N506       Mn536   2.396   1_556  S
N507        C515   1.389       .  A
N508        N509   1.302       .  A
N508        N510   1.305       .  A
N508       Mn514   2.045   1_554  S
N509        C516   1.318       .  A
N510        N511   1.353       .  A
N510       Mn536   2.387   1_655  S
N511        C516   1.394       .  A
N512        N513   1.317       .  A
N512       Mn514   2.175       .  S
N513        C515   1.337   1_655  A
Mn514      Cl538   2.407   1_656  S
C515       C1870   1.549       .  S
C516       C1850   1.520       .  S
N517        N518   1.308       .  A
N517        N523   1.303       .  A
N517       Mn525   2.144   1_556  S
N518        C526   1.352       .  A
N519        N521   1.310       .  A
N519        N520   1.314       .  A
N519       Mn537   2.170       .  S
N520        C527   1.339       .  A
N521        N522   1.311       .  A
N521       Mn525   2.146       .  S
N522        C527   1.346       .  A
N523        N524   1.307       .  A
N523       Mn537   2.103   1_556  S
N524        C526   1.336       .  A
Mn525      Cl538   2.539       .  S
C526       C2050   1.412       .  S
C527       C1983   1.439       .  S
N528        N529   1.346       .  A
N528        N534   1.316       .  A
N528       Mn536   2.278       .  S
N529        C539   1.382       .  A
N530        N531   1.313       .  A
N530        N532   1.292       .  A
N530       Mn537   2.225   1_556  S
N531        C540   1.331       .  A
N532        N533   1.355   1_556  A
N532       Mn536   2.377   1_556  S
N533        C540   1.394   1_554  A
N534        N535   1.318       .  A
N534       Mn537   2.266       .  S
N535        C539   1.342       .  A
Mn536      Cl538   2.544       .  S
Mn537      Cl538   2.391       .  S
C539       C1880   1.558       .  S
C540       C1860   1.551   1_556  S
N541        N542   1.355   1_554  A
N541        N547   1.308       .  A
N541       Mn570   2.426       .  S
N542        C549   1.397       .  A
N543        N545   1.315       .  A
N543        N544   1.315       .  A
N543       Mn559   2.162       .  S
N544        C550   1.335       .  A
N545        N546   1.351       .  A
N545       Mn570   2.383       .  S
N546        C550   1.391       .  A
N547        N548   1.306       .  A
N547       Mn559   2.048       .  S
N548        C549   1.321   1_554  A
C549       C1783   1.531   1_556  S
C550       C1790   1.545       .  S
N551        N557   1.306       .  A
N551        N552   1.317       .  A
N551       Mn581   2.119       .  S
N552        C560   1.349       .  A
N553        N554   1.300   1_554  A
N553        N555   1.301   1_554  A
N553       Mn559   2.112       .  S
N554        C561   1.339       .  A
N555        N556   1.322       .  A
N555       Mn581   2.143   1_556  S
N556        C561   1.358       .  A
N557        N558   1.303       .  A
N557       Mn559   2.109       .  S
N558        C560   1.325       .  A
Mn559      Cl583   2.462       .  S
C560       C1823   1.437       .  S
C561       C1843   1.436       .  S
N562        N563   1.356       .  A
N562        N568   1.315   1_554  A
N562       Mn570   2.431       .  S
N563        C571   1.397       .  A
N564        N566   1.319       .  A
N564        N565   1.299       .  A
N564       Mn582   2.127       .  S
N565        C572   1.322       .  A
N566        N567   1.360       .  A
N566       Mn570   2.407   1_556  S
N567        C572   1.396       .  A
N568        N569   1.299       .  A
N568       Mn582   2.033       .  S
N569        C571   1.313   1_556  A
Mn570      Cl583   2.522       .  S
C571       C1770   1.521       .  S
C572       C1803   1.560       .  S
N573        N574   1.315       .  A
N573        N579   1.305       .  A
N573       Mn581   2.145   1_556  S
N574        C584   1.347       .  A
N575        N576   1.319       .  A
N575        N577   1.306       .  A
N575       Mn582   2.183   1_554  S
N576        C585   1.357       .  A
N577        N578   1.306       .  A
N577       Mn581   2.147       .  S
N578        C585   1.346       .  A
N579        N580   1.307       .  A
N579       Mn582   2.119       .  S
N580        C584   1.335       .  A
Mn581      Cl583   2.565       .  S
Mn582      Cl583   2.490   1_556  S
C584       C1810   1.428       .  S
C585       C1833   1.451       .  S
N586        N587   1.307       .  A
N586        N592   1.319       .  A
N586       Mn615   2.203       .  S
N587        C594   1.335       .  A
N588        N590   1.297       .  A
N588        N589   1.319       .  A
N588       Mn604   2.139   1_565  S
N589        C595   1.356       .  A
N590        N591   1.299       .  A
N590       Mn615   2.087       .  S
N591        C595   1.338       .  A
N592        N593   1.317       .  A
N592       Mn604   2.194   1_565  S
N593        C594   1.357       .  A
C594       C1813   1.457       .  S
C595       C1750   1.457       .  S
N596        N602   1.310       .  A
N596        N597   1.300       .  A
N596       Mn626   2.103       .  S
N597        C605   1.328       .  A
N598        N599   1.311       .  A
N598        N600   1.318       .  A
N598       Mn604   2.184       .  S
N599        C606   1.350       .  A
N600        N601   1.317       .  A
N600       Mn626   2.127       .  S
N601        C606   1.333       .  A
N602        N603   1.316       .  A
N602       Mn604   2.156       .  S
N603        C605   1.353       .  A
Mn604      Cl628   2.495       .  S
C605       C1740   1.425       .  S
C606       C1763   1.467       .  S
N607        N608   1.316       .  A
N607        N613   1.317       .  A
N607       Mn615   2.113   1_545  S
N608        C616   1.342       .  A
N609        N611   1.298       .  A
N609        N610   1.359       .  A
N609       Mn627   2.415   1_565  S
N610        C617   1.399       .  A
N611        N612   1.302       .  A
N611       Mn615   2.058       .  S
N612        C617   1.322       .  A
N613        N614   1.343       .  A
N613       Mn627   2.395       .  S
N614        C616   1.383       .  A
Mn615      Cl628   2.493   1_565  S
C616       C1710   1.522       .  S
C617       C1730   1.545       .  S
N618        N619   1.306       .  A
N618        N624   1.312       .  A
N618       Mn626   2.111       .  S
N619        C629   1.328       .  A
N620        N621   1.355       .  A
N620        N622   1.303       .  A
N620       Mn627   2.428       .  S
N621        C630   1.397       .  A
N622        N623   1.307       .  A
N622       Mn626   2.017       .  S
N623        C630   1.319       .  A
N624        N625   1.354       .  A
N624       Mn627   2.409       .  S
N625        C629   1.390       .  A
Mn626      Cl628   2.522       .  S
Mn627      Cl628   2.380       .  S
C629       C1700   1.539       .  S
C630       C1720   1.529       .  S
N631        N632   1.311       .  A
N631        N637   1.300       .  A
N631       Mn660   2.106   1_556  S
N632        C639   1.345       .  A
N633        N635   1.298       .  A
N633        N634   1.309       .  A
N633       Mn649   2.151   1_554  S
N634        C640   1.352       .  A
N635        N636   1.310       .  A
N635       Mn660   2.119       .  S
N636        C640   1.345       .  A
N637        N638   1.302       .  A
N637       Mn649   2.119       .  S
N638        C639   1.342       .  A
C639       C1743   1.428       .  S
C640       C1690   1.451       .  S
N641        N647   1.310   1_554  A
N641        N642   1.359       .  A
N641       Mn671   2.412       .  S
N642        C650   1.398       .  A
N643        N644   1.306       .  A
N643        N645   1.313       .  A
N643       Mn649   2.108       .  S
N644        C651   1.328       .  A
N645        N646   1.358       .  A
N645       Mn671   2.410   1_556  S
N646        C651   1.397       .  A
N647        N648   1.296   1_556  A
N647       Mn649   2.041       .  S
N648        C650   1.316       .  A
Mn649      Cl673   2.465   1_556  S
C650       C1630   1.531       .  S
C651       C1650   1.560       .  S
N652        N653   1.291       .  A
N652        N658   1.302       .  A
N652       Mn660   2.051       .  S
N653        C661   1.330       .  A
N654        N656   1.307       .  A
N654        N655   1.308       .  A
N654       Mn672   2.124       .  S
N655        C662   1.339   1_554  A
N656        N657   1.313   1_554  A
N656       Mn660   2.102       .  S
N657        C662   1.339       .  A
N658        N659   1.321       .  A
N658       Mn672   2.141       .  S
N659        C661   1.353       .  A
Mn660      Cl673   2.502       .  S
C661       C1670   1.417       .  S
C662       C1683   1.406       .  S
N663        N664   1.353       .  A
N663        N669   1.313   1_556  A
N663       Mn671   2.409   1_556  S
N664        C674   1.391       .  A
N665        N666   1.303       .  A
N665        N667   1.314       .  A
N665       Mn672   2.072       .  S
N666        C675   1.321       .  A
N667        N668   1.362       .  A
N667       Mn671   2.469       .  S
N668        C675   1.404       .  A
N669        N670   1.302       .  A
N669       Mn672   2.056       .  S
N670        C674   1.322   1_554  A
Mn671      Cl673   2.484       .  S
Mn672      Cl673   2.536       .  S
C674       C1640   1.519       .  S
C675       C1660   1.559       .  S
N676        N677   1.309       .  A
N676        N682   1.302       .  A
N676       Mn705   2.108   1_565  S
N677        C684   1.344       .  A
N678        N680   1.318       .  A
N678        N679   1.314       .  A
N678       Mn694   2.156   1_545  S
N679        C685   1.341       .  A
N680        N681   1.303       .  A
N680       Mn705   2.125       .  S
N681        C685   1.339       .  A
N682        N683   1.297       .  A
N682       Mn694   2.050       .  S
N683        C684   1.330       .  A
C684       C1820   1.393       .  S
C685       C1610   1.433       .  S
N686        N692   1.308       .  A
N686        N687   1.352       .  A
N686       Mn716   2.390       .  S
N687        C695   1.393       .  A
N688        N689   1.308       .  A
N688        N690   1.317       .  A
N688       Mn694   2.152       .  S
N689        C696   1.334       .  A
N690        N691   1.349       .  A
N690       Mn716   2.362   1_565  S
N691        C696   1.387       .  A
N692        N693   1.296       .  A
N692       Mn694   2.002   1_545  S
N693        C695   1.311       .  A
Mn694      Cl718   2.468   1_565  S
C695       C1590   1.502       .  S
C696       C1583   1.535       .  S
N697        N698   1.308       .  A
N697        N703   1.297       .  A
N697       Mn705   2.108       .  S
N698        C706   1.345       .  A
N699        N701   1.312   1_545  A
N699        N700   1.326   1_545  A
N699       Mn717   2.247       .  S
N700        C707   1.365       .  A
N701        N702   1.309       .  A
N701       Mn705   2.103   1_565  S
N702        C707   1.339       .  A
N703        N704   1.303       .  A
N703       Mn717   2.088       .  S
N704        C706   1.342       .  A
Mn705      Cl718   2.536       .  S
C706       C1673   1.435       .  S
C707       C1620   1.484       .  S
N708        N709   1.359   1_545  A
N708        N714   1.307       .  A
N708       Mn716   2.395       .  S
N709        C719   1.397       .  A
N710        N711   1.328       .  A
N710        N712   1.325       .  A
N710       Mn717   2.246       .  S
N711        C720   1.355       .  A
N712        N713   1.345       .  A
N712       Mn716   2.346       .  S
N713        C720   1.377       .  A
N714        N715   1.298       .  A
N714       Mn717   2.045       .  S
N715        C719   1.318   1_545  A
Mn716      Cl718   2.561       .  S
Mn717      Cl718   2.462       .  S
C719       C1603   1.534       .  S
C720       C1573   1.555       .  S
N721        N722   1.304       .  A
N721        N727   1.299       .  A
N721       Mn750   2.128       .  S
N722        C729   1.340       .  A
N723        N725   1.307       .  A
N723        N724   1.307       .  A
N723       Mn739   2.117       .  S
N724        C730   1.346       .  A
N725        N726   1.308       .  A
N725       Mn750   2.202   1_556  S
N726        C730   1.338       .  A
N727        N728   1.312       .  A
N727       Mn739   2.121   1_554  S
N728        C729   1.350       .  A
C729       C1613   1.460       .  S
C730       C1680   1.447       .  S
N731        N737   1.310       .  A
N731        N732   1.312       .  A
N731       Mn761   2.183   1_545  S
N732        C740   1.350       .  A
N733        N734   1.328       .  A
N733        N735   1.307   1_545  A
N733       Mn739   2.207       .  S
N734        C741   1.359   1_545  A
N735        N736   1.296       .  A
N735       Mn761   2.080       .  S
N736        C741   1.329       .  A
N737        N738   1.310       .  A
N737       Mn739   2.134       .  S
N738        C740   1.330       .  A
Mn739      Cl763   2.454       .  S
C740       C1753   1.458       .  S
C741       C1830   1.437   1_556  S
N742        N743   1.305       .  A
N742        N748   1.292   1_554  A
N742       Mn750   2.129       .  S
N743        C751   1.324   1_554  A
N744        N746   1.316       .  A
N744        N745   1.347       .  A
N744       Mn762   2.430   1_554  S
N745        C752   1.389       .  A
N746        N747   1.309       .  A
N746       Mn750   2.071       .  S
N747        C752   1.334       .  A
N748        N749   1.363       .  A
N748       Mn762   2.440       .  S
N749        C751   1.406       .  A
Mn750      Cl763   2.520   1_554  S
C751       C1540   1.584       .  S
C752       C1560   1.523       .  S
N753        N754   1.304       .  A
N753        N759   1.310       .  A
N753       Mn761   2.075       .  S
N754        C764   1.328   1_556  A
N755        N756   1.353       .  A
N755        N757   1.306   1_545  A
N755       Mn762   2.382       .  S
N756        C765   1.393       .  A
N757        N758   1.303       .  A
N757       Mn761   2.146       .  S
N758        C765   1.323   1_565  A
N759        N760   1.357   1_556  A
N759       Mn762   2.434   1_565  S
N760        C764   1.397       .  A
Mn761      Cl763   2.517   1_565  S
Mn762      Cl763   2.364       .  S
C764       C1530   1.553       .  S
C765       C1553   1.546       .  S
N766        N767   1.350       .  A
N766        N772   1.315   1_554  A
N766       Mn795   2.381   1_565  S
N767        C774   1.388       .  A
N768        N770   1.316       .  A
N768        N769   1.298       .  A
N768       Mn784   2.050   1_545  S
N769        C775   1.320       .  A
N770        N771   1.355       .  A
N770       Mn795   2.427   1_556  S
N771        C775   1.394       .  A
N772        N773   1.306       .  A
N772       Mn784   2.103       .  S
N773        C774   1.325   1_556  A
C774       C1500   1.526       .  S
C775       C1513   1.521       .  S
N776        N782   1.302       .  A
N776        N777   1.299       .  A
N776       Mn806   2.092   1_556  S
N777        C785   1.332       .  A
N778        N779   1.319       .  A
N778        N780   1.302   1_556  A
N778       Mn784   2.157       .  S
N779        C786   1.357   1_556  A
N780        N781   1.297       .  A
N780       Mn806   2.112   1_565  S
N781        C786   1.348       .  A
N782        N783   1.321       .  A
N782       Mn784   2.162   1_545  S
N783        C785   1.354       .  A
Mn784      Cl808   2.546   1_566  S
C785       C1760   1.442       .  S
C786       C1840   1.464       .  S
N787        N788   1.350       .  A
N787        N793   1.316       .  A
N787       Mn795   2.383       .  S
N788        C796   1.389       .  A
N789        N791   1.317       .  A
N789        N790   1.309       .  A
N789       Mn807   2.103       .  S
N790        C797   1.329       .  A
N791        N792   1.350       .  A
N791       Mn795   2.392       .  S
N792        C797   1.389       .  A
N793        N794   1.310       .  A
N793       Mn807   2.119       .  S
N794        C796   1.332       .  A
Mn795      Cl808   2.499       .  S
C796       C1493   1.534       .  S
C797       C1523   1.524   1_545  S
N798        N799   1.297       .  A
N798        N804   1.300   1_565  A
N798       Mn806   2.083   1_565  S
N799        C809   1.336       .  A
N800        N801   1.307       .  A
N800        N802   1.307       .  A
N800       Mn807   2.134       .  S
N801        C810   1.348   1_554  A
N802        N803   1.313   1_554  A
N802       Mn806   2.147       .  S
N803        C810   1.346       .  A
N804        N805   1.318       .  A
N804       Mn807   2.140       .  S
N805        C809   1.352   1_545  A
Mn806      Cl808   2.477       .  S
Mn807      Cl808   2.530       .  S
C809       C1623   1.439       .  S
C810       C1693   1.447       .  S
N811        N812   1.318       .  A
N811        N817   1.307       .  A
N811       Mn840   2.145       .  S
N812        C819   1.350       .  A
N813        N815   1.312   1_455  A
N813        N814   1.299       .  A
N813       Mn829   2.160       .  S
N814        C820   1.345   1_455  A
N815        N816   1.318       .  A
N815       Mn840   2.157       .  S
N816        C820   1.348       .  A
N817        N818   1.305       .  A
N817       Mn829   2.140   1_655  S
N818        C819   1.343       .  A
C819       C1450   1.441       .  S
C820       C1470   1.463       .  S
N821        N827   1.304       .  A
N821        N822   1.298       .  A
N821       Mn851   2.126       .  S
N822        C830   1.333       .  A
N823        N824   1.322       .  A
N823        N825   1.308       .  A
N823       Mn829   2.181       .  S
N824        C831   1.355       .  A
N825        N826   1.304       .  A
N825       Mn851   2.115       .  S
N826        C831   1.338       .  A
N827        N828   1.315       .  A
N827       Mn829   2.150       .  S
N828        C830   1.350       .  A
Mn829      Cl853   2.470       .  S
C830       C1460   1.473       .  S
C831       C1483   1.443       .  S
N832        N833   1.307       .  A
N832        N838   1.311   1_655  A
N832       Mn840   2.131       .  S
N833        C841   1.332   1_655  A
N834        N836   1.317       .  A
N834        N835   1.356       .  A
N834       Mn852   2.447   1_655  S
N835        C842   1.396       .  A
N836        N837   1.305       .  A
N836       Mn840   2.060       .  S
N837        C842   1.325       .  A
N838        N839   1.350       .  A
N838       Mn852   2.369       .  S
N839        C841   1.385       .  A
Mn840      Cl853   2.565   1_655  S
C841       C1420   1.541       .  S
C842       C1440   1.532       .  S
N843        N844   1.310       .  A
N843        N849   1.311       .  A
N843       Mn851   2.106       .  S
N844        C854   1.336       .  A
N845        N846   1.359       .  A
N845        N847   1.308       .  A
N845       Mn852   2.412       .  S
N846        C855   1.397       .  A
N847        N848   1.310       .  A
N847       Mn851   2.094       .  S
N848        C855   1.328       .  A
N849        N850   1.352   1_455  A
N849       Mn852   2.401       .  S
N850        C854   1.392   1_655  A
Mn851      Cl853   2.491       .  S
Mn852      Cl853   2.416       .  S
C854       C1430   1.547       .  S
C855       C1413   1.555       .  S
N856        N857   1.310       .  A
N856        N862   1.305       .  A
N856       Mn885   2.155       .  S
N857        C864   1.345       .  A
N858        N860   1.302       .  A
N858        N859   1.322       .  A
N858       Mn874   2.155       .  S
N859        C865   1.360       .  A
N860        N861   1.294       .  A
N860       Mn885   2.107   1_545  S
N861        C865   1.322       .  A
N862        N863   1.312       .  A
N862       Mn874   2.135   1_565  S
N863        C864   1.348       .  A
C864       C1453   1.464       .  S
C865       C1403   1.444       .  S
N866        N872   1.307       .  A
N866        N867   1.304       .  A
N866       Mn896   2.106       .  S
N867        C875   1.334       .  A
N868        N869   1.318       .  A
N868        N870   1.311       .  A
N868       Mn874   2.157       .  S
N869        C876   1.349       .  A
N870        N871   1.298       .  A
N870       Mn896   2.102       .  S
N871        C876   1.330       .  A
N872        N873   1.302       .  A
N872       Mn874   2.115       .  S
N873        C875   1.347       .  A
Mn874      Cl898   2.542       .  S
C875       C1383   1.412       .  S
C876       C1393   1.414       .  S
N877        N878   1.308       .  A
N877        N883   1.309       .  A
N877       Mn885   2.109   1_545  S
N878        C886   1.327       .  A
N879        N881   1.316       .  A
N879        N880   1.341       .  A
N879       Mn897   2.386   1_565  S
N880        C887   1.383       .  A
N881        N882   1.307       .  A
N881       Mn885   2.058       .  S
N882        C887   1.325       .  A
N883        N884   1.352       .  A
N883       Mn897   2.380       .  S
N884        C886   1.391       .  A
Mn885      Cl898   2.500   1_565  S
C886       C1360   1.535       .  S
C887       C1370   1.493       .  S
N888        N889   1.310       .  A
N888        N894   1.311       .  A
N888       Mn896   2.073       .  S
N889        C899   1.332       .  A
N890        N891   1.361       .  A
N890        N892   1.307       .  A
N890       Mn897   2.424       .  S
N891        C900   1.400       .  A
N892        N893   1.309       .  A
N892       Mn896   2.134       .  S
N893        C900   1.330       .  A
N894        N895   1.352   1_545  A
N894       Mn897   2.416       .  S
N895        C899   1.391   1_565  A
Mn896      Cl898   2.534       .  S
Mn897      Cl898   2.432       .  S
C899       C1350   1.532   1_545  S
C900       C1340   1.584       .  S
N901        N902   1.307       .  A
N901        N907   1.304       .  A
N901       Mn930   2.115   1_565  S
N902        C909   1.342       .  A
N903        N905   1.312       .  A
N903        N904   1.313       .  A
N903       Mn919   2.164   1_545  S
N904        C910   1.351       .  A
N905        N906   1.297       .  A
N905       Mn930   2.118       .  S
N906        C910   1.344       .  A
N907        N908   1.309       .  A
N907       Mn919   2.117       .  S
N908        C909   1.347       .  A
C909       C1463   1.450       .  S
C910       C1333   1.435       .  S
N911        N917   1.311       .  A
N911        N912   1.350       .  A
N911       Mn941   2.378       .  S
N912        C920   1.387       .  A
N913        N914   1.320       .  A
N913        N915   1.320       .  A
N913       Mn919   2.146       .  S
N914        C921   1.342       .  A
N915        N916   1.356       .  A
N915       Mn941   2.442   1_565  S
N916        C921   1.393       .  A
N917        N918   1.312       .  A
N917       Mn919   2.096   1_545  S
N918        C920   1.328       .  A
Mn919      Cl943   2.569   1_565  S
C920       C1270   1.524       .  S
C921       C1290   1.564       .  S
N922        N923   1.318       .  A
N922        N928   1.308       .  A
N922       Mn930   2.161       .  S
N923        C931   1.347       .  A
N924        N926   1.304       .  A
N924        N925   1.309       .  A
N924       Mn942   2.128       .  S
N925        C932   1.344       .  A
N926        N927   1.305       .  A
N926       Mn930   2.138       .  S
N927        C932   1.353       .  A
N928        N929   1.312       .  A
N928       Mn942   2.131       .  S
N929        C931   1.339       .  A
Mn930      Cl943   2.466       .  S
C931       C1310   1.459       .  S
C932       C1320   1.450       .  S
N933        N934   1.351       .  A
N933        N939   1.307       .  A
N933       Mn941   2.373       .  S
N934        C944   1.389       .  A
N935        N936   1.302       .  A
N935        N937   1.313       .  A
N935       Mn942   2.063       .  S
N936        C945   1.322       .  A
N937        N938   1.358       .  A
N937       Mn941   2.437       .  S
N938        C945   1.399       .  A
N939        N940   1.300       .  A
N939       Mn942   2.037       .  S
N940        C944   1.319       .  A
Mn941      Cl943   2.431       .  S
Mn942      Cl943   2.531       .  S
C944       C1300   1.508       .  S
C945       C1280   1.546       .  S
N946        N947   1.316       .  A
N946        N952   1.307       .  A
N946       Mn975   2.147   1_655  S
N947        C954   1.355       .  A
N948        N950   1.302       .  A
N948        N949   1.303       .  A
N948       Mn964   2.072       .  S
N949        C955   1.326       .  A
N950        N951   1.315       .  A
N950       Mn975   2.157   1_655  S
N951        C955   1.354       .  A
N952        N953   1.300       .  A
N952       Mn964   2.131       .  S
N953        C954   1.339       .  A
C954       C1380   1.420       .  S
C955       C1250   1.420       .  S
N956        N962   1.320       .  A
N956        N957   1.352   1_655  A
N956       Mn986   2.372   1_655  S
N957        C965   1.388   1_455  A
N958        N959   1.300       .  A
N958        N960   1.303       .  A
N958       Mn964   1.992       .  S
N959        C966   1.308       .  A
N960        N961   1.361       .  A
N960       Mn986   2.431   1_655  S
N961        C966   1.402       .  A
N962        N963   1.309       .  A
N962       Mn964   2.158       .  S
N963        C965   1.334       .  A
Mn964      Cl988   2.425   1_655  S
C965       C1240   1.550       .  S
C966       C1220   1.531       .  S
N967        N968   1.313       .  A
N967        N973   1.308       .  A
N967       Mn975   2.136       .  S
N968        C976   1.349       .  A
N969        N971   1.310       .  A
N969        N970   1.305       .  A
N969       Mn987   2.123       .  S
N970        C977   1.331       .  A
N971        N972   1.315       .  A
N971       Mn975   2.160       .  S
N972        C977   1.349       .  A
N973        N974   1.311       .  A
N973       Mn987   2.161       .  S
N974        C976   1.353       .  A
Mn975      Cl988   2.567       .  S
C976       C1313   1.469       .  S
C977       C1260   1.437       .  S
N978        N979   1.337       .  A
N978        N984   1.322       .  A
N978       Mn986   2.255       .  S
N979        C989   1.372       .  A
N980        N981   1.310       .  A
N980        N982   1.306       .  A
N980       Mn987   2.141       .  S
N981        C990   1.327       .  A
N982        N983   1.347       .  A
N982       Mn986   2.356       .  S
N983        C990   1.385       .  A
N984        N985   1.323       .  A
N984       Mn987   2.289       .  S
N985        C989   1.351       .  A
Mn986      Cl988   2.583       .  S
Mn987      Cl988   2.416       .  S
C989       C1210   1.541       .  S
C990       C1233   1.524       .  S
N991        N992   1.323       .  A
N991        N997   1.297       .  A
N991      Mn1020   2.131   1_565  S
N992        C999   1.353       .  A
N993        N995   1.301       .  A
N993        N994   1.299       .  A
N993      Mn1009   2.120   1_545  S
N994       C1000   1.339       .  A
N995        N996   1.319       .  A
N995      Mn1020   2.129   1_455  S
N996       C1000   1.356       .  A
N997        N998   1.299       .  A
N997      Mn1009   2.108   1_655  S
N998        C999   1.343       .  A
C999       C1473   1.440       .  S
C1000      C1323   1.427       .  S
N1001      N1007   1.310       .  A
N1001      N1002   1.345       .  A
N1001     Mn1031   2.369       .  S
N1002      C1010   1.388       .  A
N1003      N1004   1.309       .  A
N1003      N1005   1.310       .  A
N1003     Mn1009   2.114       .  S
N1004      C1011   1.332       .  A
N1005      N1006   1.342       .  A
N1005     Mn1031   2.323   1_565  S
N1006      C1011   1.381       .  A
N1007      N1008   1.306       .  A
N1007     Mn1009   2.065   1_545  S
N1008      C1010   1.324       .  A
Mn1009    Cl1033   2.449   1_465  S
C1010      C1170   1.505       .  S
C1011      C1180   1.502       .  S
N1012      N1013   1.303       .  A
N1012      N1018   1.310       .  A
N1012     Mn1020   2.131       .  S
N1013      C1021   1.342       .  A
N1014      N1016   1.308       .  A
N1014      N1015   1.311       .  A
N1014     Mn1032   2.198       .  S
N1015      C1022   1.350       .  A
N1016      N1017   1.295       .  A
N1016     Mn1020   2.080       .  S
N1017      C1022   1.326       .  A
N1018      N1019   1.311       .  A
N1018     Mn1032   2.113       .  S
N1019      C1021   1.335       .  A
Mn1020    Cl1033   2.491       .  S
C1021      C1253   1.411       .  S
C1022      C1390   1.426       .  S
N1023      N1024   1.360   1_545  A
N1023      N1029   1.303       .  A
N1023     Mn1031   2.449   1_655  S
N1024      C1034   1.399   1_565  A
N1025      N1026   1.307       .  A
N1025      N1027   1.314       .  A
N1025     Mn1032   2.082       .  S
N1026      C1035   1.329   1_655  A
N1027      N1028   1.358   1_655  A
N1027     Mn1031   2.444   1_655  S
N1028      C1035   1.395       .  A
N1029      N1030   1.308       .  A
N1029     Mn1032   2.140       .  S
N1030      C1034   1.326       .  A
Mn1031    Cl1033   2.381   1_455  S
Mn1032    Cl1033   2.605       .  S
C1034      C1190   1.573   1_545  S
C1035      C1200   1.555       .  S
N1036      N1037   1.294       .  A
N1036      N1042   1.305       .  A
N1036     Mn1065   2.107       .  S
N1037      C1044   1.332       .  A
N1038      N1040   1.300       .  A
N1038      N1039   1.319       .  A
N1038     Mn1054   2.176       .  S
N1039      C1045   1.364       .  A
N1040      N1041   1.300       .  A
N1040     Mn1065   2.114   1_655  S
N1041      C1045   1.330       .  A
N1042      N1043   1.319       .  A
N1042     Mn1054   2.110   1_455  S
N1043      C1044   1.349       .  A
C1044      C1330   1.410       .  S
C1045      C1263   1.456       .  S
N1046      N1052   1.306       .  A
N1046      N1047   1.304       .  A
N1046     Mn1076   2.128   1_545  S
N1047      C1055   1.330       .  A
N1048      N1049   1.312   1_545  A
N1048      N1050   1.310   1_545  A
N1048     Mn1054   2.146       .  S
N1049      C1056   1.345       .  A
N1050      N1051   1.316       .  A
N1050     Mn1076   2.160       .  S
N1051      C1056   1.345       .  A
N1052      N1053   1.306       .  A
N1052     Mn1054   2.093       .  S
N1053      C1055   1.346       .  A
Mn1054    Cl1078   2.588       .  S
C1055      C1400   1.417       .  S
C1056      C1480   1.436       .  S
N1057      N1058   1.298       .  A
N1057      N1063   1.305       .  A
N1057     Mn1065   2.051       .  S
N1058      C1066   1.316       .  A
N1059      N1061   1.316       .  A
N1059      N1060   1.350       .  A
N1059     Mn1077   2.427       .  S
N1060      C1067   1.393       .  A
N1061      N1062   1.307       .  A
N1061     Mn1065   2.059       .  S
N1062      C1067   1.323       .  A
N1063      N1064   1.351   1_455  A
N1063     Mn1077   2.366       .  S
N1064      C1066   1.392   1_655  A
Mn1065    Cl1078   2.426   1_455  S
C1066      C1140   1.511       .  S
C1067      C1150   1.517       .  S
N1068      N1069   1.300       .  A
N1068      N1074   1.316   1_655  A
N1068     Mn1076   2.071       .  S
N1069      C1079   1.329   1_655  A
N1070      N1071   1.357       .  A
N1070      N1072   1.310   1_545  A
N1070     Mn1077   2.394   1_655  S
N1071      C1080   1.396       .  A
N1072      N1073   1.309       .  A
N1072     Mn1076   2.143       .  S
N1073      C1080   1.332   1_565  A
N1074      N1075   1.347       .  A
N1074     Mn1077   2.387   1_565  S
N1075      C1079   1.386       .  A
Mn1076    Cl1078   2.457   1_565  S
Mn1077    Cl1078   2.509   1_455  S
C1079      C1163   1.510       .  S
C1080      C1133   1.567       .  S
C1081      C1082   1.415       .  D
C1081      C1923   1.565       .  S
C1081      C1963   1.572       .  S
C1082      C1203   1.595       .  S
C1082      C1243   1.573       .  S
C1083      C1084   1.413       .  D
C1083      C1520   1.583       .  S
C1083      C1600   1.585       .  S
C1084      C1193   1.585       .  S
C1084      C1353   1.596       .  S
C1085      C1086   1.412       .  D
C1085      C1883   1.592       .  S
C1085      C1953   1.572       .  S
C1086      C1183   1.567       .  S
C1086      C1423   1.586       .  S
C1087      C1088   1.419       .  D
C1087      C1563   1.556       .  S
C1087      C1593   1.579       .  S
C1088      C1173   1.576       .  S
C1088      C1303   1.581       .  S
C1089      C1090   1.424       .  D
C1089      C2243   1.614       .  S
C1089      C2513   1.580       .  S
C1090      C1230   1.573       .  S
C1090      C1283   1.578       .  S
C1091      C1092   1.415       .  D
C1091      C2323   1.570       .  S
C1091      C2523   1.588       .  S
C1092      C1223   1.610       .  S
C1092      C1343   1.593       .  S
C1093      C1094   1.428       .  D
C1093      C2230   1.583       .  S
C1093      C2373   1.570       .  S
C1094      C1293   1.619       .  S
C1094      C1410   1.589       .  S
C1095      C1096   1.423       .  D
C1095      C1550   1.587       .  S
C1095      C1713   1.553       .  S
C1096      C1153   1.551       .  S
C1096      C1273   1.606       .  S
C1097      C1098   1.406       .  D
C1097      C1913   1.552       .  S
C1097      C2023   1.573       .  S
C1098      C1543   1.586       .  S
C1098      C1643   1.579       .  S
C1099      C1100   1.414       .  D
C1099      C1863   1.581       .  S
C1099      C2013   1.587       .  S
C1100      C1533   1.574       .  S
C1100      C1773   1.571       .  S
C1101      C1102   1.399       .  D
C1101      C2383   1.547       .  S
C1101      C2453   1.540       .  S
C1102      C1580   1.561       .  S
C1102      C1793   1.580       .  S
C1103      C1104   1.431       .  D
C1103      C1570   1.617       .  S
C1103      C1663   1.582       .  S
C1104      C2443   1.640       .  S
C1104      C2503   1.613       .  S
C1105      C1106   1.428       .  D
C1105      C2283   1.594       .  S
C1105      C2493   1.522       .  S
C1106      C1653   1.557       .  S
C1106      C1723   1.622       .  S
C1107      C1108   1.425       .  D
C1107      C1900   1.602       .  S
C1107      C2070   1.614       .  S
C1108      C1143   1.599       .  S
C1108      C1213   1.592       .  S
C1109      C1110   1.418       .  D
C1109      C1890   1.601       .  S
C1109      C2133   1.608       .  S
C1110      C1490   1.587       .  S
C1110      C1633   1.590       .  S
C1111      C1112   1.415       .  D
C1111      C2223   1.592       .  S
C1111      C2433   1.573       .  S
C1112      C1940   1.570       .  S
C1112      C2003   1.577       .  S
C1113      C1114   1.408       .  D
C1113      C2333   1.575       .  S
C1113      C2423   1.575       .  S
C1114      C1933   1.566       .  S
C1114      C2153   1.556       .  S
C1115      C1116   1.415       .  D
C1115      C2213   1.586       .  S
C1115      C2273   1.555       .  S
C1116      C1993   1.607       .  S
C1116      C2063   1.590       .  S
C1117      C1118   1.410       .  D
C1117      C1873   1.584       .  S
C1117      C2083   1.565       .  S
C1118      C1160   1.545       .  S
C1118      C1433   1.581       .  S
C1119      C1120   1.415       .  D
C1119      C1510   1.578       .  S
C1119      C1703   1.585       .  S
C1120      C1130   1.602       .  S
C1120      C1363   1.596       .  S
C1121      C1122   1.417       .  D
C1121      C1853   1.561       .  S
C1121      C2143   1.573       .  S
C1122      C1503   1.602       .  S
C1122      C1780   1.590       .  S
C1123      C1124   1.414       .  D
C1123      C2263   1.584       .  S
C1123      C2313   1.573       .  S
C1124      C2093   1.593       .  S
C1124      C2163   1.595       .  S
C1125      C1126   1.417       .  D
C1125      C2303   1.576       .  S
C1125      C2353   1.544       .  S
C1126      C1373   1.594       .  S
C1126      C1443   1.562       .  S
C1127      C1128   1.421       .  D
C1127      C2253   1.589       .  S
C1127      C2363   1.578       .  S
C1128      C1733   1.602       .  S
C1128      C1800   1.585       .  S
C1129      C1130   1.447       .  A
C1129      C1134   1.451       .  A
C1129     Br1136   1.910       .  S
C1130      C1131   1.428       .  A
C1131      C1132   1.432       .  A
C1131     Br1138   1.918   1_545  S
C1132      C1133   1.428       .  A
C1132     Br1137   1.940   1_545  S
C1133      C1134   1.415       .  A
C1134     Br1135   1.922       .  S
C1139      C1140   1.407   1_655  A
C1139      C1144   1.437       .  A
C1139     Br1146   1.928       .  S
C1140      C1141   1.407       .  A
C1141      C1142   1.431       .  A
C1141     Br1148   1.935       .  S
C1142      C1143   1.443       .  A
C1142     Br1147   1.915       .  S
C1143      C1144   1.441   1_455  A
C1144     Br1145   1.902       .  S
C1149      C1150   1.413       .  A
C1149      C1154   1.432       .  A
C1149     Br1156   1.928   1_545  S
C1150      C1151   1.425       .  A
C1151      C1152   1.429       .  A
C1151     Br1158   1.930       .  S
C1152      C1153   1.423       .  A
C1152     Br1157   1.933       .  S
C1153      C1154   1.428       .  A
C1154     Br1155   1.914   1_545  S
C1159      C1160   1.439       .  A
C1159      C1164   1.430       .  A
C1159     Br1166   1.920       .  S
C1160      C1161   1.410   1_455  A
C1161      C1162   1.410       .  A
C1161     Br1168   1.928       .  S
C1162      C1163   1.420   1_655  A
C1162     Br1167   1.935       .  S
C1163      C1164   1.405       .  A
C1164     Br1165   1.927       .  S
C1169      C1170   1.439   1_565  A
C1169      C1174   1.439       .  A
C1169     Br1176   1.928       .  S
C1170      C1171   1.405       .  A
C1171      C1172   1.403       .  A
C1171     Br1178   1.917       .  S
C1172      C1173   1.424       .  A
C1172     Br1177   1.944       .  S
C1173      C1174   1.418   1_545  A
C1174     Br1175   1.927       .  S
C1179      C1180   1.404   1_655  A
C1179      C1184   1.424       .  A
C1179     Br1186   1.935       .  S
C1180      C1181   1.408       .  A
C1181      C1182   1.427       .  A
C1181     Br1188   1.933       .  S
C1182      C1183   1.434       .  A
C1182     Br1187   1.917       .  S
C1183      C1184   1.430   1_455  A
C1184     Br1185   1.899       .  S
C1189      C1190   1.418       .  A
C1189      C1194   1.453       .  A
C1189     Br1196   1.924       .  S
C1190      C1191   1.445   1_565  A
C1191      C1192   1.425       .  A
C1191     Br1198   1.951       .  S
C1192      C1193   1.407   1_545  A
C1192     Br1197   1.924       .  S
C1193      C1194   1.446       .  A
C1194     Br1195   1.914       .  S
C1199      C1200   1.422   1_655  A
C1199      C1204   1.426       .  A
C1199     Br1206   1.940       .  S
C1200      C1201   1.416       .  A
C1201      C1202   1.453       .  A
C1201     Br1208   1.926       .  S
C1202      C1203   1.443       .  A
C1202     Br1207   1.921       .  S
C1203      C1204   1.433   1_455  A
C1204     Br1205   1.930       .  S
C1209      C1210   1.414       .  A
C1209      C1214   1.430       .  A
C1209     Br1216   1.941       .  S
C1210      C1211   1.413   1_455  A
C1211      C1212   1.439       .  A
C1211     Br1218   1.936       .  S
C1212      C1213   1.446   1_655  A
C1212     Br1217   1.911       .  S
C1213      C1214   1.435       .  A
C1214     Br1215   1.909       .  S
C1219      C1220   1.412       .  A
C1219      C1224   1.439       .  A
C1219     Br1226   1.935       .  S
C1220      C1221   1.416       .  A
C1221      C1222   1.445       .  A
C1221     Br1228   1.925       .  S
C1222      C1223   1.437       .  A
C1222     Br1227   1.909       .  S
C1223      C1224   1.448       .  A
C1224     Br1225   1.921       .  S
C1229      C1230   1.440       .  A
C1229      C1234   1.434       .  A
C1229     Br1236   1.910       .  S
C1230      C1231   1.425       .  A
C1231      C1232   1.427       .  A
C1231     Br1238   1.923       .  S
C1232      C1233   1.420       .  A
C1232     Br1237   1.930       .  S
C1233      C1234   1.407       .  A
C1234     Br1235   1.930       .  S
C1239      C1240   1.425       .  A
C1239      C1244   1.421       .  A
C1239     Br1246   1.943       .  S
C1240      C1241   1.419   1_655  A
C1241      C1242   1.446       .  A
C1241     Br1248   1.925       .  S
C1242      C1243   1.441       .  A
C1242     Br1247   1.924       .  S
C1243      C1244   1.415   1_455  A
C1244     Br1245   1.908       .  S
C1249      C1250   1.401       .  A
C1249      C1254   1.389       .  A
C1249     Br1256   1.931       .  S
C1250      C1251   1.394       .  A
C1251      C1252   1.378       .  A
C1251     Br1258   1.924   1_655  S
C1252      C1253   1.404       .  A
C1252     Br1257   1.927   1_655  S
C1253      C1254   1.402       .  A
C1254     Br1255   1.932       .  S
C1259      C1260   1.404   1_655  A
C1259      C1264   1.389       .  A
C1259     Br1266   1.916       .  S
C1260      C1261   1.394       .  A
C1261      C1262   1.390       .  A
C1261     Br1268   1.935       .  S
C1262      C1263   1.428   1_455  A
C1262     Br1267   1.938       .  S
C1263      C1264   1.395       .  A
C1264     Br1265   1.918       .  S
C1269      C1270   1.414       .  A
C1269      C1274   1.445       .  A
C1269     Br1276   1.917       .  S
C1270      C1271   1.405       .  A
C1271      C1272   1.422       .  A
C1271     Br1278   1.915       .  S
C1272      C1273   1.426       .  A
C1272     Br1277   1.920       .  S
C1273      C1274   1.438       .  A
C1274     Br1275   1.912       .  S
C1279      C1280   1.411       .  A
C1279      C1284   1.442       .  A
C1279     Br1286   1.919       .  S
C1280      C1281   1.429       .  A
C1281      C1282   1.426       .  A
C1281     Br1288   1.937       .  S
C1282      C1283   1.420       .  A
C1282     Br1287   1.933       .  S
C1283      C1284   1.441       .  A
C1284     Br1285   1.923       .  S
C1289      C1290   1.416       .  A
C1289      C1294   1.447       .  A
C1289     Br1296   1.920       .  S
C1290      C1291   1.424       .  A
C1291      C1292   1.443       .  A
C1291     Br1298   1.928       .  S
C1292      C1293   1.429       .  A
C1292     Br1297   1.908       .  S
C1293      C1294   1.441       .  A
C1294     Br1295   1.921       .  S
C1299      C1300   1.418       .  A
C1299      C1304   1.421       .  A
C1299     Br1306   1.933       .  S
C1300      C1301   1.418       .  A
C1301      C1302   1.435       .  A
C1301     Br1308   1.931   1_545  S
C1302      C1303   1.430       .  A
C1302     Br1307   1.924   1_545  S
C1303      C1304   1.419       .  A
C1304     Br1305   1.919       .  S
C1309      C1310   1.408       .  A
C1309      C1314   1.401       .  A
C1309     Br1316   1.908       .  S
C1310      C1311   1.423       .  A
C1311      C1312   1.404       .  A
C1311     Br1318   1.925       .  S
C1312      C1313   1.397       .  A
C1312     Br1317   1.924       .  S
C1313      C1314   1.396       .  A
C1314     Br1315   1.922       .  S
C1319      C1320   1.399       .  A
C1319      C1324   1.388       .  A
C1319     Br1326   1.930   1_545  S
C1320      C1321   1.414       .  A
C1321      C1322   1.396       .  A
C1321     Br1328   1.936       .  S
C1322      C1323   1.405       .  A
C1322     Br1327   1.930       .  S
C1323      C1324   1.408       .  A
C1324     Br1325   1.933       .  S
C1329      C1330   1.402       .  A
C1329      C1334   1.390       .  A
C1329     Br1336   1.920   1_545  S
C1330      C1331   1.399       .  A
C1331      C1332   1.389       .  A
C1331     Br1338   1.931       .  S
C1332      C1333   1.407       .  A
C1332     Br1337   1.929       .  S
C1333      C1334   1.407       .  A
C1334     Br1335   1.929   1_545  S
C1339      C1340   1.445       .  A
C1339      C1344   1.431       .  A
C1339     Br1346   1.947       .  S
C1340      C1341   1.421       .  A
C1341      C1342   1.456       .  A
C1341     Br1348   1.922       .  S
C1342      C1343   1.445       .  A
C1342     Br1347   1.919       .  S
C1343      C1344   1.413       .  A
C1344     Br1345   1.916       .  S
C1349      C1350   1.409   1_545  A
C1349      C1354   1.429       .  A
C1349     Br1356   1.940       .  S
C1350      C1351   1.410       .  A
C1351      C1352   1.443       .  A
C1351     Br1358   1.927       .  S
C1352      C1353   1.444       .  A
C1352     Br1357   1.914       .  S
C1353      C1354   1.444   1_565  A
C1354     Br1355   1.923       .  S
C1359      C1360   1.412       .  A
C1359      C1364   1.443       .  A
C1359     Br1366   1.929       .  S
C1360      C1361   1.414       .  A
C1361      C1362   1.435       .  A
C1361     Br1368   1.936   1_545  S
C1362      C1363   1.444       .  A
C1362     Br1367   1.927   1_545  S
C1363      C1364   1.441       .  A
C1364     Br1365   1.910       .  S
C1369      C1370   1.426       .  A
C1369      C1374   1.442       .  A
C1369     Br1376   1.916       .  S
C1370      C1371   1.398       .  A
C1371      C1372   1.396       .  A
C1371     Br1378   1.918       .  S
C1372      C1373   1.433       .  A
C1372     Br1377   1.953       .  S
C1373      C1374   1.433       .  A
C1374     Br1375   1.919       .  S
C1379      C1380   1.403       .  A
C1379      C1384   1.392       .  A
C1379     Br1386   1.910       .  S
C1380      C1381   1.415       .  A
C1381      C1382   1.384       .  A
C1381     Br1388   1.942       .  S
C1382      C1383   1.406       .  A
C1382     Br1387   1.946       .  S
C1383      C1384   1.395       .  A
C1384     Br1385   1.925       .  S
C1389      C1390   1.411       .  A
C1389      C1394   1.388       .  A
C1389     Br1396   1.929       .  S
C1390      C1391   1.401   1_545  A
C1391      C1392   1.389       .  A
C1391     Br1398   1.917       .  S
C1392      C1393   1.401   1_565  A
C1392     Br1397   1.923       .  S
C1393      C1394   1.398       .  A
C1394     Br1395   1.936       .  S
C1399      C1400   1.418       .  A
C1399      C1404   1.375       .  A
C1399     Br1406   1.963   1_545  S
C1400      C1401   1.396       .  A
C1401      C1402   1.388       .  A
C1401     Br1408   1.934       .  S
C1402      C1403   1.399       .  A
C1402     Br1407   1.900       .  S
C1403      C1404   1.423       .  A
C1404     Br1405   1.956   1_545  S
C1409      C1410   1.430       .  A
C1409      C1414   1.430       .  A
C1409     Br1416   1.914       .  S
C1410      C1411   1.439       .  A
C1411      C1412   1.449       .  A
C1411     Br1418   1.936       .  S
C1412      C1413   1.419       .  A
C1412     Br1417   1.907       .  S
C1413      C1414   1.418       .  A
C1414     Br1415   1.937       .  S
C1419      C1420   1.415       .  A
C1419      C1424   1.442       .  A
C1419     Br1426   1.916       .  S
C1420      C1421   1.417   1_455  A
C1421      C1422   1.422       .  A
C1421     Br1428   1.940       .  S
C1422      C1423   1.432   1_655  A
C1422     Br1427   1.921       .  S
C1423      C1424   1.439       .  A
C1424     Br1425   1.913       .  S
C1429      C1430   1.426       .  A
C1429      C1434   1.424       .  A
C1429     Br1436   1.941       .  S
C1430      C1431   1.414   1_455  A
C1431      C1432   1.444       .  A
C1431     Br1438   1.926       .  S
C1432      C1433   1.442   1_655  A
C1432     Br1437   1.923       .  S
C1433      C1434   1.425       .  A
C1434     Br1435   1.926       .  S
C1439      C1440   1.418       .  A
C1439      C1444   1.442       .  A
C1439     Br1446   1.924       .  S
C1440      C1441   1.422       .  A
C1441      C1442   1.424       .  A
C1441     Br1448   1.932       .  S
C1442      C1443   1.420       .  A
C1442     Br1447   1.926       .  S
C1443      C1444   1.428       .  A
C1444     Br1445   1.925       .  S
C1449      C1450   1.396       .  A
C1449      C1454   1.390       .  A
C1449     Br1456   1.932       .  S
C1450      C1451   1.404       .  A
C1451      C1452   1.398       .  A
C1451     Br1458   1.925       .  S
C1452      C1453   1.419       .  A
C1452     Br1457   1.941       .  S
C1453      C1454   1.418       .  A
C1454     Br1455   1.933       .  S
C1459      C1460   1.432       .  A
C1459      C1464   1.389       .  A
C1459     Br1466   1.941       .  S
C1460      C1461   1.429       .  A
C1461      C1462   1.394       .  A
C1461     Br1468   1.941       .  S
C1462      C1463   1.399       .  A
C1462     Br1467   1.940       .  S
C1463      C1464   1.395       .  A
C1464     Br1465   1.941       .  S
C1469      C1470   1.404   1_455  A
C1469      C1474   1.380   1_455  A
C1469     Br1476   1.919       .  S
C1470      C1471   1.431       .  A
C1471      C1472   1.407       .  A
C1471     Br1478   1.933       .  S
C1472      C1473   1.406       .  A
C1472     Br1477   1.917       .  S
C1473      C1474   1.399       .  A
C1474     Br1475   1.934   1_655  S
C1479      C1480   1.400       .  A
C1479      C1484   1.397       .  A
C1479     Br1486   1.931       .  S
C1480      C1481   1.395   1_655  A
C1481      C1482   1.389       .  A
C1481     Br1488   1.921       .  S
C1482      C1483   1.407       .  A
C1482     Br1487   1.933       .  S
C1483      C1484   1.404   1_455  A
C1484     Br1485   1.911       .  S
C1489      C1490   1.454   1_556  A
C1489      C1494   1.441       .  A
C1489     Br1496   1.917       .  S
C1490      C1491   1.424       .  A
C1491      C1492   1.427       .  A
C1491     Br1498   1.919       .  S
C1492      C1493   1.419       .  A
C1492     Br1497   1.935       .  S
C1493      C1494   1.405   1_554  A
C1494     Br1495   1.934       .  S
C1499      C1500   1.411   1_556  A
C1499      C1504   1.423       .  A
C1499     Br1506   1.936       .  S
C1500      C1501   1.412       .  A
C1501      C1502   1.443       .  A
C1501     Br1508   1.927       .  S
C1502      C1503   1.440       .  A
C1502     Br1507   1.894       .  S
C1503      C1504   1.432   1_554  A
C1504     Br1505   1.912       .  S
C1509      C1510   1.428       .  A
C1509      C1514   1.422       .  A
C1509     Br1516   1.919   1_545  S
C1510      C1511   1.441       .  A
C1511      C1512   1.441       .  A
C1511     Br1518   1.907       .  S
C1512      C1513   1.405       .  A
C1512     Br1517   1.927       .  S
C1513      C1514   1.415       .  A
C1514     Br1515   1.935   1_545  S
C1519      C1520   1.442   1_545  A
C1519      C1524   1.430       .  A
C1519     Br1526   1.920       .  S
C1520      C1521   1.432       .  A
C1521      C1522   1.438       .  A
C1521     Br1528   1.924       .  S
C1522      C1523   1.413       .  A
C1522     Br1527   1.919       .  S
C1523      C1524   1.408   1_565  A
C1524     Br1525   1.940       .  S
C1529      C1530   1.417       .  A
C1529      C1534   1.446       .  A
C1529     Br1536   1.923       .  S
C1530      C1531   1.435   1_554  A
C1531      C1532   1.422   1_556  A
C1531     Br1538   1.945       .  S
C1532      C1533   1.415       .  A
C1532     Br1537   1.926   1_554  S
C1533      C1534   1.438       .  A
C1534     Br1535   1.921       .  S
C1539      C1540   1.422       .  A
C1539      C1544   1.454       .  A
C1539     Br1546   1.923       .  S
C1540      C1541   1.447   1_556  A
C1541      C1542   1.430   1_554  A
C1541     Br1548   1.945       .  S
C1542      C1543   1.409       .  A
C1542     Br1547   1.931   1_556  S
C1543      C1544   1.444       .  A
C1544     Br1545   1.917       .  S
C1549      C1550   1.425       .  A
C1549      C1554   1.415       .  A
C1549     Br1556   1.943       .  S
C1550      C1551   1.416   1_545  A
C1551      C1552   1.440       .  A
C1551     Br1558   1.929       .  S
C1552      C1553   1.462   1_565  A
C1552     Br1557   1.947       .  S
C1553      C1554   1.415       .  A
C1554     Br1555   1.919       .  S
C1559      C1560   1.412       .  A
C1559      C1564   1.435       .  A
C1559     Br1566   1.928   1_545  S
C1560      C1561   1.423       .  A
C1561      C1562   1.427       .  A
C1561     Br1568   1.937       .  S
C1562      C1563   1.431       .  A
C1562     Br1567   1.939       .  S
C1563      C1564   1.432       .  A
C1564     Br1565   1.917   1_545  S
C1569      C1570   1.414       .  A
C1569      C1574   1.448       .  A
C1569     Br1576   1.894       .  S
C1570      C1571   1.434       .  A
C1571      C1572   1.439       .  A
C1571     Br1578   1.913       .  S
C1572      C1573   1.414       .  A
C1572     Br1577   1.923       .  S
C1573      C1574   1.419       .  A
C1574     Br1575   1.915       .  S
C1579      C1580   1.411       .  A
C1579      C1584   1.408       .  A
C1579     Br1586   1.911       .  S
C1580      C1581   1.449       .  A
C1581      C1582   1.454       .  A
C1581     Br1588   1.920       .  S
C1582      C1583   1.430       .  A
C1582     Br1587   1.921       .  S
C1583      C1584   1.409       .  A
C1584     Br1585   1.942       .  S
C1589      C1590   1.410       .  A
C1589      C1594   1.433       .  A
C1589     Br1596   1.934       .  S
C1590      C1591   1.413       .  A
C1591      C1592   1.429       .  A
C1591     Br1598   1.932   1_545  S
C1592      C1593   1.435       .  A
C1592     Br1597   1.928   1_545  S
C1593      C1594   1.439       .  A
C1594     Br1595   1.919       .  S
C1599      C1600   1.444       .  A
C1599      C1604   1.450       .  A
C1599     Br1606   1.914       .  S
C1600      C1601   1.422   1_565  A
C1601      C1602   1.417       .  A
C1601     Br1608   1.915       .  S
C1602      C1603   1.417   1_545  A
C1602     Br1607   1.938       .  S
C1603      C1604   1.413       .  A
C1604     Br1605   1.923       .  S
C1609      C1610   1.380       .  A
C1609      C1614   1.389       .  A
C1609     Br1616   1.915       .  S
C1610      C1611   1.396       .  A
C1611      C1612   1.390       .  A
C1611     Br1618   1.935   1_545  S
C1612      C1613   1.419       .  A
C1612     Br1617   1.936       .  S
C1613      C1614   1.426       .  A
C1614     Br1615   1.939       .  S
C1619      C1620   1.408       .  A
C1619      C1624   1.376       .  A
C1619     Br1626   1.911       .  S
C1620      C1621   1.395       .  A
C1621      C1622   1.407       .  A
C1621     Br1628   1.903       .  S
C1622      C1623   1.406       .  A
C1622     Br1627   1.893       .  S
C1623      C1624   1.403       .  A
C1624     Br1625   1.939       .  S
C1629      C1630   1.412       .  A
C1629      C1634   1.447       .  A
C1629     Br1636   1.923       .  S
C1630      C1631   1.419   1_554  A
C1631      C1632   1.419       .  A
C1631     Br1638   1.945       .  S
C1632      C1633   1.424   1_556  A
C1632     Br1637   1.910       .  S
C1633      C1634   1.449       .  A
C1634     Br1635   1.917       .  S
C1639      C1640   1.410       .  A
C1639      C1644   1.439       .  A
C1639     Br1646   1.917       .  S
C1640      C1641   1.410       .  A
C1641      C1642   1.424       .  A
C1641     Br1648   1.937   1_556  S
C1642      C1643   1.438       .  A
C1642     Br1647   1.925   1_556  S
C1643      C1644   1.431       .  A
C1644     Br1645   1.909       .  S
C1649      C1650   1.439       .  A
C1649      C1654   1.424       .  A
C1649     Br1656   1.942       .  S
C1650      C1651   1.422       .  A
C1651      C1652   1.446       .  A
C1651     Br1658   1.919       .  S
C1652      C1653   1.429       .  A
C1652     Br1657   1.922       .  S
C1653      C1654   1.411       .  A
C1654     Br1655   1.935       .  S
C1659      C1660   1.415       .  A
C1659      C1664   1.450       .  A
C1659     Br1666   1.919       .  S
C1660      C1661   1.433       .  A
C1661      C1662   1.430       .  A
C1661     Br1668   1.934       .  S
C1662      C1663   1.417       .  A
C1662     Br1667   1.928       .  S
C1663      C1664   1.434       .  A
C1664     Br1665   1.913       .  S
C1669      C1670   1.416       .  A
C1669      C1674   1.387       .  A
C1669     Br1676   1.938       .  S
C1670      C1671   1.426       .  A
C1671      C1672   1.390       .  A
C1671     Br1678   1.960       .  S
C1672      C1673   1.409       .  A
C1672     Br1677   1.948       .  S
C1673      C1674   1.405       .  A
C1674     Br1675   1.944       .  S
C1679      C1680   1.439       .  A
C1679      C1684   1.373       .  A
C1679     Br1686   1.952   1_556  S
C1680      C1681   1.414       .  A
C1681      C1682   1.395       .  A
C1681     Br1688   1.936       .  S
C1682      C1683   1.395       .  A
C1682     Br1687   1.928       .  S
C1683      C1684   1.388       .  A
C1684     Br1685   1.962   1_556  S
C1689      C1690   1.419       .  A
C1689      C1694   1.390   1_554  A
C1689     Br1696   1.938       .  S
C1690      C1691   1.405       .  A
C1691      C1692   1.394   1_554  A
C1691     Br1698   1.919       .  S
C1692      C1693   1.399       .  A
C1692     Br1697   1.923       .  S
C1693      C1694   1.395       .  A
C1694     Br1695   1.926       .  S
C1699      C1700   1.421       .  A
C1699      C1704   1.447       .  A
C1699     Br1706   1.924   1_545  S
C1700      C1701   1.421       .  A
C1701      C1702   1.421       .  A
C1701     Br1708   1.939       .  S
C1702      C1703   1.421       .  A
C1702     Br1707   1.914       .  S
C1703      C1704   1.431       .  A
C1704     Br1705   1.917       .  S
C1709      C1710   1.416       .  A
C1709      C1714   1.433       .  A
C1709     Br1716   1.918       .  S
C1710      C1711   1.412       .  A
C1711      C1712   1.425       .  A
C1711     Br1718   1.935   1_545  S
C1712      C1713   1.432       .  A
C1712     Br1717   1.922   1_545  S
C1713      C1714   1.423       .  A
C1714     Br1715   1.929       .  S
C1719      C1720   1.401       .  A
C1719      C1724   1.422       .  A
C1719     Br1726   1.917       .  S
C1720      C1721   1.426       .  A
C1721      C1722   1.449       .  A
C1721     Br1728   1.908       .  S
C1722      C1723   1.441       .  A
C1722     Br1727   1.928       .  S
C1723      C1724   1.436       .  A
C1724     Br1725   1.925       .  S
C1729      C1730   1.419       .  A
C1729      C1734   1.453       .  A
C1729     Br1736   1.924       .  S
C1730      C1731   1.415       .  A
C1731      C1732   1.426       .  A
C1731     Br1738   1.938       .  S
C1732      C1733   1.438       .  A
C1732     Br1737   1.924       .  S
C1733      C1734   1.440       .  A
C1734     Br1735   1.912       .  S
C1739      C1740   1.394       .  A
C1739      C1744   1.390       .  A
C1739     Br1746   1.926       .  S
C1740      C1741   1.413       .  A
C1741      C1742   1.376       .  A
C1741     Br1748   1.953       .  S
C1742      C1743   1.409       .  A
C1742     Br1747   1.950       .  S
C1743      C1744   1.410       .  A
C1744     Br1745   1.929       .  S
C1749      C1750   1.410       .  A
C1749      C1754   1.378       .  A
C1749     Br1756   1.934       .  S
C1750      C1751   1.405   1_565  A
C1751      C1752   1.403       .  A
C1751     Br1758   1.938       .  S
C1752      C1753   1.432       .  A
C1752     Br1757   1.940       .  S
C1753      C1754   1.388   1_545  A
C1754     Br1755   1.903       .  S
C1759      C1760   1.414       .  A
C1759      C1764   1.387       .  A
C1759     Br1766   1.937       .  S
C1760      C1761   1.415       .  A
C1761      C1762   1.403       .  A
C1761     Br1768   1.904       .  S
C1762      C1763   1.380       .  A
C1762     Br1767   1.902       .  S
C1763      C1764   1.398       .  A
C1764     Br1765   1.899       .  S
C1769      C1770   1.412       .  A
C1769      C1774   1.435       .  A
C1769     Br1776   1.901       .  S
C1770      C1771   1.416       .  A
C1771      C1772   1.428       .  A
C1771     Br1778   1.930   1_554  S
C1772      C1773   1.432       .  A
C1772     Br1777   1.929   1_554  S
C1773      C1774   1.425       .  A
C1774     Br1775   1.922       .  S
C1779      C1780   1.436   1_556  A
C1779      C1784   1.440       .  A
C1779     Br1786   1.914       .  S
C1780      C1781   1.441       .  A
C1781      C1782   1.436       .  A
C1781     Br1788   1.925       .  S
C1782      C1783   1.417       .  A
C1782     Br1787   1.937       .  S
C1783      C1784   1.412   1_554  A
C1784     Br1785   1.926       .  S
C1789      C1790   1.417       .  A
C1789      C1794   1.434       .  A
C1789     Br1796   1.932       .  S
C1790      C1791   1.414       .  A
C1791      C1792   1.441       .  A
C1791     Br1798   1.905       .  S
C1792      C1793   1.430       .  A
C1792     Br1797   1.925       .  S
C1793      C1794   1.433       .  A
C1794     Br1795   1.920       .  S
C1799      C1800   1.442       .  A
C1799      C1804   1.452       .  A
C1799     Br1806   1.914       .  S
C1800      C1801   1.415       .  A
C1801      C1802   1.421       .  A
C1801     Br1808   1.898       .  S
C1802      C1803   1.436       .  A
C1802     Br1807   1.960       .  S
C1803      C1804   1.420       .  A
C1804     Br1805   1.924       .  S
C1809      C1810   1.399       .  A
C1809      C1814   1.396       .  A
C1809     Br1816   1.924       .  S
C1810      C1811   1.387       .  A
C1811      C1812   1.389       .  A
C1811     Br1818   1.933       .  S
C1812      C1813   1.432       .  A
C1812     Br1817   1.947       .  S
C1813      C1814   1.403       .  A
C1814     Br1815   1.922       .  S
C1819      C1820   1.402       .  A
C1819      C1824   1.385       .  A
C1819     Br1826   1.942       .  S
C1820      C1821   1.395       .  A
C1821      C1822   1.386       .  A
C1821     Br1828   1.931       .  S
C1822      C1823   1.403       .  A
C1822     Br1827   1.909       .  S
C1823      C1824   1.407       .  A
C1824     Br1825   1.928       .  S
C1829      C1830   1.412       .  A
C1829      C1834   1.405       .  A
C1829     Br1836   1.927       .  S
C1830      C1831   1.402   1_554  A
C1831      C1832   1.394       .  A
C1831     Br1838   1.925       .  S
C1832      C1833   1.411   1_556  A
C1832     Br1837   1.935       .  S
C1833      C1834   1.403       .  A
C1834     Br1835   1.922       .  S
C1839      C1840   1.403   1_556  A
C1839      C1844   1.400       .  A
C1839     Br1846   1.905       .  S
C1840      C1841   1.405       .  A
C1841      C1842   1.400       .  A
C1841     Br1848   1.929       .  S
C1842      C1843   1.414   1_554  A
C1842     Br1847   1.925       .  S
C1843      C1844   1.405       .  A
C1844     Br1845   1.916       .  S
C1849      C1850   1.423   1_556  A
C1849      C1854   1.429       .  A
C1849     Br1856   1.935       .  S
C1850      C1851   1.412       .  A
C1851      C1852   1.433       .  A
C1851     Br1858   1.925       .  S
C1852      C1853   1.431       .  A
C1852     Br1857   1.923       .  S
C1853      C1854   1.430   1_554  A
C1854     Br1855   1.941       .  S
C1859      C1860   1.419   1_556  A
C1859      C1864   1.436       .  A
C1859     Br1866   1.932       .  S
C1860      C1861   1.420       .  A
C1861      C1862   1.439       .  A
C1861     Br1868   1.900       .  S
C1862      C1863   1.424       .  A
C1862     Br1867   1.929       .  S
C1863      C1864   1.438   1_554  A
C1864     Br1865   1.930       .  S
C1869      C1870   1.418   1_655  A
C1869      C1874   1.432       .  A
C1869     Br1876   1.933       .  S
C1870      C1871   1.421       .  A
C1871      C1872   1.448       .  A
C1871     Br1878   1.924       .  S
C1872      C1873   1.430       .  A
C1872     Br1877   1.925       .  S
C1873      C1874   1.431   1_455  A
C1874     Br1875   1.923       .  S
C1879      C1880   1.427       .  A
C1879      C1884   1.428       .  A
C1879     Br1886   1.932       .  S
C1880      C1881   1.416       .  A
C1881      C1882   1.445   1_455  A
C1881     Br1888   1.933   1_455  S
C1882      C1883   1.451   1_655  A
C1882     Br1887   1.921       .  S
C1883      C1884   1.422       .  A
C1884     Br1885   1.920       .  S
C1889      C1890   1.449       .  A
C1889      C1894   1.460       .  A
C1889     Br1896   1.916       .  S
C1890      C1891   1.416   1_554  A
C1891      C1892   1.429       .  A
C1891     Br1898   1.911       .  S
C1892      C1893   1.449   1_556  A
C1892     Br1897   1.954       .  S
C1893      C1894   1.421       .  A
C1894     Br1895   1.923       .  S
C1899      C1900   1.443       .  A
C1899      C1904   1.451       .  A
C1899     Br1906   1.918       .  S
C1900      C1901   1.438   1_455  A
C1901      C1902   1.429       .  A
C1901     Br1908   1.916       .  S
C1902      C1903   1.421   1_655  A
C1902     Br1907   1.946       .  S
C1903      C1904   1.410       .  A
C1904     Br1905   1.911       .  S
C1909      C1910   1.407       .  A
C1909      C1914   1.423       .  A
C1909     Br1916   1.932   1_556  S
C1910      C1911   1.415       .  A
C1911      C1912   1.423       .  A
C1911     Br1918   1.908       .  S
C1912      C1913   1.415       .  A
C1912     Br1917   1.921       .  S
C1913      C1914   1.432       .  A
C1914     Br1915   1.921   1_556  S
C1919      C1920   1.409   1_455  A
C1919      C1924   1.425       .  A
C1919     Br1926   1.932       .  S
C1920      C1921   1.408       .  A
C1921      C1922   1.427       .  A
C1921     Br1928   1.934       .  S
C1922      C1923   1.430   1_655  A
C1922     Br1927   1.919       .  S
C1923      C1924   1.435       .  A
C1924     Br1925   1.927       .  S
C1929      C1930   1.414       .  A
C1929      C1934   1.437       .  A
C1929     Br1936   1.926       .  S
C1930      C1931   1.413       .  A
C1931      C1932   1.421       .  A
C1931     Br1938   1.932       .  S
C1932      C1933   1.428       .  A
C1932     Br1937   1.928       .  S
C1933      C1934   1.430       .  A
C1934     Br1935   1.923       .  S
C1939      C1940   1.434       .  A
C1939      C1944   1.427       .  A
C1939     Br1946   1.930       .  S
C1940      C1941   1.428       .  A
C1941      C1942   1.434       .  A
C1941     Br1948   1.929       .  S
C1942      C1943   1.418       .  A
C1942     Br1947   1.923       .  S
C1943      C1944   1.414       .  A
C1944     Br1945   1.931       .  S
C1949      C1950   1.415       .  A
C1949      C1954   1.445       .  A
C1949     Br1956   1.927       .  S
C1950      C1951   1.441   1_455  A
C1951      C1952   1.418       .  A
C1951     Br1958   1.961       .  S
C1952      C1953   1.410   1_655  A
C1952     Br1957   1.917       .  S
C1953      C1954   1.446       .  A
C1954     Br1955   1.921       .  S
C1959      C1960   1.419       .  A
C1959      C1964   1.417       .  A
C1959     Br1966   1.937       .  S
C1960      C1961   1.409   1_455  A
C1961      C1962   1.440       .  A
C1961     Br1968   1.928       .  S
C1962      C1963   1.446   1_655  A
C1962     Br1967   1.918       .  S
C1963      C1964   1.418       .  A
C1964     Br1965   1.920       .  S
C1969      C1970   1.405       .  A
C1969      C1974   1.389       .  A
C1969     Br1976   1.932       .  S
C1970      C1971   1.417       .  A
C1971      C1972   1.398       .  A
C1971     Br1978   1.931       .  S
C1972      C1973   1.413       .  A
C1972     Br1977   1.940       .  S
C1973      C1974   1.414       .  A
C1974     Br1975   1.925   1_655  S
C1979      C1980   1.408   1_655  A
C1979      C1984   1.391   1_655  A
C1979     Br1986   1.940       .  S
C1980      C1981   1.410       .  A
C1981      C1982   1.395       .  A
C1981     Br1988   1.932       .  S
C1982      C1983   1.395       .  A
C1982     Br1987   1.933       .  S
C1983      C1984   1.405       .  A
C1984     Br1985   1.933   1_455  S
C1989      C1990   1.456       .  A
C1989      C1994   1.441       .  A
C1989     Br1996   1.943       .  S
C1990      C1991   1.422       .  A
C1991      C1992   1.459       .  A
C1991     Br1998   1.917       .  S
C1992      C1993   1.446       .  A
C1992     Br1997   1.918       .  S
C1993      C1994   1.415       .  A
C1994     Br1995   1.929       .  S
C1999      C2000   1.443       .  A
C1999      C2004   1.422       .  A
C1999     Br2006   1.925       .  S
C2000      C2001   1.419       .  A
C2001      C2002   1.445       .  A
C2001     Br2008   1.921       .  S
C2002      C2003   1.438       .  A
C2002     Br2007   1.920       .  S
C2003      C2004   1.417       .  A
C2004     Br2005   1.942       .  S
C2009      C2010   1.425       .  A
C2009      C2014   1.452       .  A
C2009     Br2016   1.922       .  S
C2010      C2011   1.449   1_554  A
C2011      C2012   1.431       .  A
C2011     Br2018   1.947       .  S
C2012      C2013   1.415   1_556  A
C2012     Br2017   1.925       .  S
C2013      C2014   1.439       .  A
C2014     Br2015   1.926       .  S
C2019      C2020   1.419       .  A
C2019      C2024   1.443       .  A
C2019     Br2026   1.918       .  S
C2020      C2021   1.445   1_556  A
C2021      C2022   1.420   1_554  A
C2021     Br2028   1.949       .  S
C2022      C2023   1.411       .  A
C2022     Br2027   1.930   1_556  S
C2023      C2024   1.434       .  A
C2024     Br2025   1.921       .  S
C2029      C2030   1.396       .  A
C2029      C2034   1.395       .  A
C2029     Br2036   1.919       .  S
C2030      C2031   1.396       .  A
C2031      C2032   1.391       .  A
C2031     Br2038   1.933       .  S
C2032      C2033   1.428       .  A
C2032     Br2037   1.946       .  S
C2033      C2034   1.411       .  A
C2034     Br2035   1.931       .  S
C2039      C2040   1.402       .  A
C2039      C2044   1.390       .  A
C2039     Br2046   1.930   1_556  S
C2040      C2041   1.398       .  A
C2041      C2042   1.395       .  A
C2041     Br2048   1.922       .  S
C2042      C2043   1.404       .  A
C2042     Br2047   1.911       .  S
C2043      C2044   1.410       .  A
C2044     Br2045   1.936   1_556  S
C2049      C2050   1.390       .  A
C2049      C2054   1.381       .  A
C2049     Br2056   1.919       .  S
C2050      C2051   1.417       .  A
C2051      C2052   1.377       .  A
C2051     Br2058   1.934   1_556  S
C2052      C2053   1.393       .  A
C2052     Br2057   1.936   1_556  S
C2053      C2054   1.401       .  A
C2054     Br2055   1.928       .  S
C2059      C2060   1.417       .  A
C2059      C2064   1.436       .  A
C2059     Br2066   1.932       .  S
C2060      C2061   1.417       .  A
C2061      C2062   1.442       .  A
C2061     Br2068   1.922       .  S
C2062      C2063   1.431       .  A
C2062     Br2067   1.913       .  S
C2063      C2064   1.440       .  A
C2064     Br2065   1.930       .  S
C2069      C2070   1.431   1_655  A
C2069      C2074   1.428       .  A
C2069     Br2076   1.904       .  S
C2070      C2071   1.453       .  A
C2071      C2072   1.461       .  A
C2071     Br2078   1.911       .  S
C2072      C2073   1.418       .  A
C2072     Br2077   1.919       .  S
C2073      C2074   1.424   1_455  A
C2074     Br2075   1.944       .  S
C2079      C2080   1.411       .  A
C2079      C2084   1.426       .  A
C2079     Br2086   1.931       .  S
C2080      C2081   1.416   1_455  A
C2081      C2082   1.433       .  A
C2081     Br2088   1.930       .  S
C2082      C2083   1.428   1_655  A
C2082     Br2087   1.919       .  S
C2083      C2084   1.430       .  A
C2084     Br2085   1.925       .  S
C2089      C2090   1.419       .  A
C2089      C2094   1.460       .  A
C2089     Br2096   1.920       .  S
C2090      C2091   1.433       .  A
C2091      C2092   1.417       .  A
C2091     Br2098   1.957       .  S
C2092      C2093   1.412       .  A
C2092     Br2097   1.902       .  S
C2093      C2094   1.449       .  A
C2094     Br2095   1.914       .  S
C2099      C2100   1.411       .  A
C2099      C2104   1.375       .  A
C2099     Br2106   1.955       .  S
C2100      C2101   1.401       .  A
C2101      C2102   1.394       .  A
C2101     Br2108   1.923       .  S
C2102      C2103   1.395       .  A
C2102     Br2107   1.925       .  S
C2103      C2104   1.415       .  A
C2104     Br2105   1.953       .  S
C2109      C2110   1.420   1_655  A
C2109      C2114   1.384       .  A
C2109     Br2116   1.949       .  S
C2110      C2111   1.389       .  A
C2111      C2112   1.383       .  A
C2111     Br2118   1.932       .  S
C2112      C2113   1.404   1_455  A
C2112     Br2117   1.926       .  S
C2113      C2114   1.390       .  A
C2114     Br2115   1.946       .  S
C2119      C2120   1.395   1_655  A
C2119      C2124   1.392       .  A
C2119     Br2126   1.924       .  S
C2120      C2121   1.399       .  A
C2121      C2122   1.387       .  A
C2121     Br2128   1.921       .  S
C2122      C2123   1.409       .  A
C2122     Br2127   1.938       .  S
C2123      C2124   1.407   1_455  A
C2124     Br2125   1.918       .  S
C2129      C2130   1.421       .  A
C2129      C2134   1.427   1_554  A
C2129     Br2136   1.943   1_554  S
C2130      C2131   1.417       .  A
C2131      C2132   1.458       .  A
C2131     Br2138   1.924       .  S
C2132      C2133   1.447       .  A
C2132     Br2137   1.915       .  S
C2133      C2134   1.438   1_554  A
C2134     Br2135   1.927       .  S
C2139      C2140   1.425   1_556  A
C2139      C2144   1.430       .  A
C2139     Br2146   1.926       .  S
C2140      C2141   1.415       .  A
C2141      C2142   1.424       .  A
C2141     Br2148   1.925       .  S
C2142      C2143   1.413       .  A
C2142     Br2147   1.923       .  S
C2143      C2144   1.418   1_554  A
C2144     Br2145   1.929       .  S
C2149      C2150   1.427       .  A
C2149      C2154   1.416       .  A
C2149     Br2156   1.941       .  S
C2150      C2151   1.409       .  A
C2151      C2152   1.437       .  A
C2151     Br2158   1.924       .  S
C2152      C2153   1.436       .  A
C2152     Br2157   1.916       .  S
C2153      C2154   1.413       .  A
C2154     Br2155   1.927       .  S
C2159      C2160   1.421       .  A
C2159      C2164   1.459       .  A
C2159     Br2166   1.915       .  S
C2160      C2161   1.426       .  A
C2161      C2162   1.421       .  A
C2161     Br2168   1.945       .  S
C2162      C2163   1.431       .  A
C2162     Br2167   1.927       .  S
C2163      C2164   1.441       .  A
C2164     Br2165   1.922       .  S
C2169      C2170   1.414       .  A
C2169      C2174   1.391       .  A
C2169     Br2176   1.936       .  S
C2170      C2171   1.408       .  A
C2171      C2172   1.384       .  A
C2171     Br2178   1.924       .  S
C2172      C2173   1.398       .  A
C2172     Br2177   1.924       .  S
C2173      C2174   1.403       .  A
C2174     Br2175   1.936       .  S
C2179      C2180   1.401       .  A
C2179      C2184   1.395       .  A
C2179     Br2186   1.929       .  S
C2180      C2181   1.414       .  A
C2181      C2182   1.385       .  A
C2181     Br2188   1.941       .  S
C2182      C2183   1.404       .  A
C2182     Br2187   1.950       .  S
C2183      C2184   1.406       .  A
C2184     Br2185   1.919       .  S
C2189      C2190   1.403   1_556  A
C2189      C2194   1.380       .  A
C2189     Br2196   1.947       .  S
C2190      C2191   1.413       .  A
C2191      C2192   1.387       .  A
C2191     Br2198   1.935       .  S
C2192      C2193   1.393       .  A
C2192     Br2197   1.933       .  S
C2193      C2194   1.404   1_554  A
C2194     Br2195   1.948       .  S
C2199      C2200   1.384   1_556  A
C2199      C2204   1.383       .  A
C2199     Br2206   1.938       .  S
C2200      C2201   1.420       .  A
C2201      C2202   1.388       .  A
C2201     Br2208   1.941       .  S
C2202      C2203   1.390       .  A
C2202     Br2207   1.930       .  S
C2203      C2204   1.423   1_554  A
C2204     Br2205   1.928       .  S
C2209      C2210   1.426       .  A
C2209      C2214   1.427       .  A
C2209     Br2216   1.939       .  S
C2210      C2211   1.419       .  A
C2211      C2212   1.445       .  A
C2211     Br2218   1.927       .  S
C2212      C2213   1.437       .  A
C2212     Br2217   1.918       .  S
C2213      C2214   1.426       .  A
C2214     Br2215   1.924       .  S
C2219      C2220   1.410       .  A
C2219      C2224   1.437       .  A
C2219     Br2226   1.919       .  S
C2220      C2221   1.408       .  A
C2221      C2222   1.430       .  A
C2221     Br2228   1.903       .  S
C2222      C2223   1.430       .  A
C2222     Br2227   1.921       .  S
C2223      C2224   1.438       .  A
C2224     Br2225   1.921       .  S
C2229      C2230   1.427       .  A
C2229      C2234   1.430       .  A
C2229     Br2236   1.928       .  S
C2230      C2231   1.442       .  A
C2231      C2232   1.438       .  A
C2231     Br2238   1.918       .  S
C2232      C2233   1.410       .  A
C2232     Br2237   1.931       .  S
C2233      C2234   1.420       .  A
C2234     Br2235   1.933       .  S
C2239      C2240   1.416       .  A
C2239      C2244   1.441       .  A
C2239     Br2246   1.920       .  S
C2240      C2241   1.412       .  A
C2241      C2242   1.450       .  A
C2241     Br2248   1.912       .  S
C2242      C2243   1.434       .  A
C2242     Br2247   1.907       .  S
C2243      C2244   1.434       .  A
C2244     Br2245   1.923       .  S
C2249      C2250   1.434       .  A
C2249      C2254   1.464       .  A
C2249     Br2256   1.922       .  S
C2250      C2251   1.412       .  A
C2251      C2252   1.419       .  A
C2251     Br2258   1.919       .  S
C2252      C2253   1.412       .  A
C2252     Br2257   1.905       .  S
C2253      C2254   1.453       .  A
C2254     Br2255   1.911       .  S
C2259      C2260   1.421       .  A
C2259      C2264   1.416       .  A
C2259     Br2266   1.952       .  S
C2260      C2261   1.410       .  A
C2261      C2262   1.447       .  A
C2261     Br2268   1.923       .  S
C2262      C2263   1.446       .  A
C2262     Br2267   1.918       .  S
C2263      C2264   1.428       .  A
C2264     Br2265   1.921       .  S
C2269      C2270   1.415       .  A
C2269      C2274   1.432       .  A
C2269     Br2276   1.922       .  S
C2270      C2271   1.412       .  A
C2271      C2272   1.421       .  A
C2271     Br2278   1.932       .  S
C2272      C2273   1.430       .  A
C2272     Br2277   1.931       .  S
C2273      C2274   1.425       .  A
C2274     Br2275   1.928       .  S
C2279      C2280   1.411       .  A
C2279      C2284   1.431       .  A
C2279     Br2286   1.937       .  S
C2280      C2281   1.410       .  A
C2281      C2282   1.431       .  A
C2281     Br2288   1.929       .  S
C2282      C2283   1.432       .  A
C2282     Br2287   1.915       .  S
C2283      C2284   1.442       .  A
C2284     Br2285   1.929       .  S
C2289      C2290   1.392       .  A
C2289      C2294   1.393       .  A
C2289     Br2296   1.909       .  S
C2290      C2291   1.416       .  A
C2291      C2292   1.386       .  A
C2291     Br2298   1.943       .  S
C2292      C2293   1.399       .  A
C2292     Br2297   1.937       .  S
C2293      C2294   1.409       .  A
C2294     Br2295   1.923       .  S
C2299      C2300   1.417       .  A
C2299      C2304   1.444       .  A
C2299     Br2306   1.917       .  S
C2300      C2301   1.403       .  A
C2301      C2302   1.402       .  A
C2301     Br2308   1.937       .  S
C2302      C2303   1.421       .  A
C2302     Br2307   1.890       .  S
C2303      C2304   1.436       .  A
C2304     Br2305   1.918       .  S
C2309      C2310   1.411       .  A
C2309      C2314   1.435       .  A
C2309     Br2316   1.916       .  S
C2310      C2311   1.408       .  A
C2311      C2312   1.425       .  A
C2311     Br2318   1.936       .  S
C2312      C2313   1.437       .  A
C2312     Br2317   1.921       .  S
C2313      C2314   1.431       .  A
C2314     Br2315   1.919       .  S
C2319      C2320   1.412       .  A
C2319      C2324   1.421       .  A
C2319     Br2326   1.936       .  S
C2320      C2321   1.403       .  A
C2321      C2322   1.434       .  A
C2321     Br2328   1.930       .  S
C2322      C2323   1.435       .  A
C2322     Br2327   1.907       .  S
C2323      C2324   1.430       .  A
C2324     Br2325   1.918       .  S
C2329      C2330   1.411       .  A
C2329      C2334   1.437       .  A
C2329     Br2336   1.926       .  S
C2330      C2331   1.426       .  A
C2331      C2332   1.431       .  A
C2331     Br2338   1.933       .  S
C2332      C2333   1.422       .  A
C2332     Br2337   1.931       .  S
C2333      C2334   1.437       .  A
C2334     Br2335   1.922       .  S
C2339      C2340   1.423       .  A
C2339      C2344   1.408       .  A
C2339     Br2346   1.881       .  S
C2340      C2341   1.439       .  A
C2341      C2342   1.392       .  A
C2341     Br2348   1.939       .  S
C2342      C2343   1.401       .  A
C2342     Br2347   1.918       .  S
C2343      C2344   1.378       .  A
C2344     Br2345   1.895       .  S
C2349      C2350   1.452       .  A
C2349      C2354   1.422       .  A
C2349     Br2356   1.945       .  S
C2350      C2351   1.418       .  A
C2351      C2352   1.439       .  A
C2351     Br2358   1.922       .  S
C2352      C2353   1.431       .  A
C2352     Br2357   1.921       .  S
C2353      C2354   1.413       .  A
C2354     Br2355   1.961       .  S
C2359      C2360   1.425       .  A
C2359      C2364   1.449       .  A
C2359     Br2366   1.920       .  S
C2360      C2361   1.431       .  A
C2361      C2362   1.433       .  A
C2361     Br2368   1.943       .  S
C2362      C2363   1.418       .  A
C2362     Br2367   1.929       .  S
C2363      C2364   1.435       .  A
C2364     Br2365   1.924       .  S
C2369      C2370   1.409       .  A
C2369      C2374   1.420       .  A
C2369     Br2376   1.916       .  S
C2370      C2371   1.410       .  A
C2371      C2372   1.432       .  A
C2371     Br2378   1.932       .  S
C2372      C2373   1.442       .  A
C2372     Br2377   1.923       .  S
C2373      C2374   1.426       .  A
C2374     Br2375   1.913       .  S
C2379      C2380   1.411       .  A
C2379      C2384   1.417       .  A
C2379     Br2386   1.935       .  S
C2380      C2381   1.406       .  A
C2381      C2382   1.425       .  A
C2381     Br2388   1.898       .  S
C2382      C2383   1.419       .  A
C2382     Br2387   1.922       .  S
C2383      C2384   1.424       .  A
C2384     Br2385   1.916       .  S
C2389      C2390   1.432       .  A
C2389      C2394   1.408       .  A
C2389     Br2396   1.938       .  S
C2390      C2391   1.425       .  A
C2391      C2392   1.400       .  A
C2391     Br2398   1.940       .  S
C2392      C2393   1.401       .  A
C2392     Br2397   1.936       .  S
C2393      C2394   1.400       .  A
C2394     Br2395   1.935       .  S
C2399      C2400   1.403       .  A
C2399      C2404   1.393       .  A
C2399     Br2406   1.926       .  S
C2400      C2401   1.418       .  A
C2401      C2402   1.376       .  A
C2401     Br2408   1.933       .  S
C2402      C2403   1.392       .  A
C2402     Br2407   1.942       .  S
C2403      C2404   1.405       .  A
C2404     Br2405   1.924       .  S
C2409      C2410   1.407       .  A
C2409      C2414   1.399       .  A
C2409     Br2416   1.921       .  S
C2410      C2411   1.391       .  A
C2411      C2412   1.376       .  A
C2411     Br2418   1.942       .  S
C2412      C2413   1.411       .  A
C2412     Br2417   1.915       .  S
C2413      C2414   1.402       .  A
C2414     Br2415   1.921       .  S
C2419      C2420   1.417       .  A
C2419      C2424   1.447       .  A
C2419     Br2426   1.917       .  S
C2420      C2421   1.409       .  A
C2421      C2422   1.416       .  A
C2421     Br2428   1.904       .  S
C2422      C2423   1.409       .  A
C2422     Br2427   1.911       .  S
C2423      C2424   1.443       .  A
C2424     Br2425   1.917       .  S
C2429      C2430   1.408       .  A
C2429      C2434   1.436       .  A
C2429     Br2436   1.928       .  S
C2430      C2431   1.425       .  A
C2431      C2432   1.430       .  A
C2431     Br2438   1.932       .  S
C2432      C2433   1.424       .  A
C2432     Br2437   1.934       .  S
C2433      C2434   1.443       .  A
C2434     Br2435   1.923       .  S
C2439      C2440   1.425       .  A
C2439      C2444   1.439       .  A
C2439     Br2446   1.942       .  S
C2440      C2441   1.413       .  A
C2441      C2442   1.464       .  A
C2441     Br2448   1.928       .  S
C2442      C2443   1.463       .  A
C2442     Br2447   1.905       .  S
C2443      C2444   1.437       .  A
C2444     Br2445   1.904       .  S
C2449      C2450   1.405       .  A
C2449      C2454   1.412       .  A
C2449     Br2456   1.932       .  S
C2450      C2451   1.412       .  A
C2451      C2452   1.423       .  A
C2451     Br2458   1.928       .  S
C2452      C2453   1.422       .  A
C2452     Br2457   1.922       .  S
C2453      C2454   1.423       .  A
C2454     Br2455   1.923       .  S
C2459      C2460   1.406       .  A
C2459      C2464   1.390       .  A
C2459     Br2466   1.857       .  S
C2460      C2461   1.388       .  A
C2461      C2462   1.400       .  A
C2461     Br2468   1.901       .  S
C2462      C2463   1.410       .  A
C2462     Br2467   1.911       .  S
C2463      C2464   1.393       .  A
C2464     Br2465   1.940       .  S
C2469      C2470   1.413       .  A
C2469      C2474   1.387       .  A
C2469     Br2476   1.935       .  S
C2470      C2471   1.403       .  A
C2471      C2472   1.393       .  A
C2471     Br2478   1.925       .  S
C2472      C2473   1.401       .  A
C2472     Br2477   1.924       .  S
C2473      C2474   1.397       .  A
C2474     Br2475   1.932       .  S
C2479      C2480   1.396       .  A
C2479      C2484   1.389       .  A
C2479     Br2486   1.909       .  S
C2480      C2481   1.398       .  A
C2481      C2482   1.399       .  A
C2481     Br2488   1.924       .  S
C2482      C2483   1.422       .  A
C2482     Br2487   1.922       .  S
C2483      C2484   1.400       .  A
C2484     Br2485   1.927       .  S
C2489      C2490   1.405       .  A
C2489      C2494   1.420       .  A
C2489     Br2496   1.926       .  S
C2490      C2491   1.421       .  A
C2491      C2492   1.417       .  A
C2491     Br2498   1.929       .  S
C2492      C2493   1.417       .  A
C2492     Br2497   1.948       .  S
C2493      C2494   1.424       .  A
C2494     Br2495   1.916       .  S
C2499      C2500   1.416       .  A
C2499      C2504   1.456       .  A
C2499     Br2506   1.924       .  S
C2500      C2501   1.433       .  A
C2501      C2502   1.439       .  A
C2501     Br2508   1.950       .  S
C2502      C2503   1.441       .  A
C2502     Br2507   1.932       .  S
C2503      C2504   1.453       .  A
C2504     Br2505   1.916       .  S
C2509      C2510   1.400       .  A
C2509      C2514   1.424       .  A
C2509     Br2516   1.931       .  S
C2510      C2511   1.425       .  A
C2511      C2512   1.440       .  A
C2511     Br2518   1.921       .  S
C2512      C2513   1.426       .  A
C2512     Br2517   1.933       .  S
C2513      C2514   1.430       .  A
C2514     Br2515   1.884       .  S
C2519      C2520   1.423       .  A
C2519      C2524   1.427       .  A
C2519     Br2526   1.940       .  S
C2520      C2521   1.411       .  A
C2521      C2522   1.444       .  A
C2521     Br2528   1.924       .  S
C2522      C2523   1.439       .  A
C2522     Br2527   1.907       .  S
C2523      C2524   1.431       .  A
C2524     Br2525   1.925       .  S
C2529      C2530   1.409       .  A
C2529      C2534   1.382       .  A
C2529     Br2536   1.917       .  S
C2530      C2531   1.414       .  A
C2531      C2532   1.384       .  A
C2531     Br2538   1.947       .  S
C2532      C2533   1.403       .  A
C2532     Br2537   1.945       .  S
C2533      C2534   1.389       .  A
C2534     Br2535   1.922       .  S
C2539      C2540   1.417       .  A
C2539      C2544   1.402       .  A
C2539     Br2546   1.942       .  S
C2540      C2541   1.415       .  A
C2541      C2542   1.381       .  A
C2541     Br2548   1.941       .  S
C2542      C2543   1.403       .  A
C2542     Br2547   1.942       .  S
C2543      C2544   1.404       .  A
C2544     Br2545   1.918       .  S
C2549      C2550   1.407       .  A
C2549      C2554   1.383       .  A
C2549     Br2556   1.936       .  S
C2550      C2551   1.425       .  A
C2551      C2552   1.403       .  A
C2551     Br2558   1.932       .  S
C2552      C2553   1.402       .  A
C2552     Br2557   1.929       .  S
C2553      C2554   1.403       .  A
C2554     Br2555   1.937       .  S
C2559      C2560   1.395       .  A
C2559      C2564   1.395       .  A
C2559     Br2566   1.935       .  S
C2560      C2561   1.413       .  A
C2561      C2562   1.394       .  A
C2561     Br2568   1.930       .  S
C2562      C2563   1.389       .  A
C2562     Br2567   1.926       .  S
C2563      C2564   1.404       .  A
C2564     Br2565   1.922       .  S
