geometry optimzed in LAMMPS
_audit_creation_date              2020-11-30 
_audit_creation_method            'lammps2cif' 
_symmetry_space_group_name_H-M    'P1' 
_symmetry_Int_Tables_number       1 
_symmetry_cell_setting            triclinic 
loop_ 
_symmetry_equiv_pos_as_xyz 
  x,y,z 
_cell_length_a                    53.228694804762775 
_cell_length_b                    53.33759116024524 
_cell_length_c                    32.26136207118583 
_cell_angle_alpha                 89.99218349524686 
_cell_angle_beta                  90.01198033026816 
_cell_angle_gamma                 120.06939058088783 
loop_ 
_atom_site_label 
_atom_site_type_symbol 
_atom_site_fract_x 
_atom_site_fract_y 
_atom_site_fract_z 
_atom_site_charge 
C1          C  0.25522466  0.37882191  0.17080422     0.03260
C2          C  0.25302216  0.40051349  0.14917957    -0.12890
C3          C  0.24764021  0.39808484  0.10626297     0.00760
C4          C  0.24483181  0.37381215  0.08497541    -0.11410
C5          C  0.24858476  0.35279579  0.10594986     0.03260
C6          C  0.25365314  0.35539345  0.14888304    -0.10830
H7          H  0.25433176  0.41868207  0.16612798     0.08850
H8          H  0.24091485  0.37188657  0.05184683     0.06380
H9          H  0.25534300  0.33864328  0.16554602     0.06230
C10         C  0.25524649  0.37888576  0.35047521     0.03260
C11         C  0.25306001  0.40057174  0.37213843    -0.12890
C12         C  0.24766600  0.39810217  0.41505486     0.00760
C13         C  0.24482920  0.37379793  0.43629240    -0.11410
C14         C  0.24856343  0.35278635  0.41527397     0.03260
C15         C  0.25364088  0.35542541  0.37235063    -0.10830
H16         H  0.25439141  0.41876574  0.35522527     0.08850
H17         H  0.24090443  0.37184414  0.46941722     0.06380
H18         H  0.25531242  0.33868109  0.35565168     0.06230
C19         C  0.10588155  0.37997596  0.35120939     0.03260
C20         C  0.12551842  0.40326374  0.37599562    -0.12890
C21         C  0.13063317  0.39880112  0.41732076     0.00760
C22         C  0.11232730  0.37205148  0.43617798    -0.11410
C23         C  0.08944888  0.34987834  0.41372539     0.03260
C24         C  0.08737363  0.35330281  0.37079064    -0.10830
H25         H  0.13855049  0.42443782  0.36209258     0.08850
H26         H  0.11496039  0.36905637  0.46880185     0.06380
H27         H  0.07138493  0.33515336  0.35278301     0.06230
C28         C  0.10589124  0.38000116  0.16998908     0.03260
C29         C  0.12548924  0.40329790  0.14518340    -0.12890
C30         C  0.13057889  0.39883673  0.10384905     0.00760
C31         C  0.11229278  0.37207154  0.08501789    -0.11410
C32         C  0.08945779  0.34988026  0.10750777     0.03260
C33         C  0.08741643  0.35331048  0.15044029    -0.10830
H34         H  0.13851627  0.42447740  0.15907541     0.08850
H35         H  0.11490916  0.36907629  0.05239149     0.06380
H36         H  0.07146862  0.33515359  0.16847469     0.06230
C37         C  0.10814893  0.22772235  0.17084482     0.03260
C38         C  0.08645689  0.23003182  0.14944673    -0.12890
C39         C  0.08903838  0.23570541  0.10663729     0.00760
C40         C  0.11371149  0.23949218  0.08541600    -0.11410
C41         C  0.13489323  0.23599618  0.10617156     0.03260
C42         C  0.13173851  0.22962631  0.14873719    -0.10830
H43         H  0.06814287  0.22847598  0.16639421     0.08850
H44         H  0.11586075  0.24401503  0.05244082     0.06380
H45         H  0.14843542  0.22768234  0.16522410     0.06230
C46         C  0.10810069  0.22767575  0.35043317     0.03260
C47         C  0.08643741  0.23005076  0.37178817    -0.12890
C48         C  0.08901568  0.23572814  0.41459517     0.00760
C49         C  0.11365870  0.23945172  0.43585672    -0.11410
C50         C  0.13480670  0.23588886  0.41514470     0.03260
C51         C  0.13165402  0.22951598  0.37258024    -0.10830
H52         H  0.06815029  0.22853995  0.35480959     0.08850
H53         H  0.11581096  0.24397919  0.46883004     0.06380
H54         H  0.14833422  0.22753274  0.35612262     0.06230
C55         C  0.37132891  0.11384171  0.35032813     0.03260
C56         C  0.39472871  0.13518349  0.37308460    -0.12890
C57         C  0.39205846  0.13815669  0.41574779     0.00760
C58         C  0.36660829  0.11802696  0.43632830    -0.11410
C59         C  0.34416064  0.09492354  0.41440706     0.03260
C60         C  0.34622621  0.09348718  0.37127616    -0.10830
H61         H  0.41433704  0.15063847  0.35701224     0.08850
H62         H  0.36478391  0.11967447  0.46955776     0.06380
H63         H  0.32815145  0.07671917  0.35395923     0.06230
C64         C  0.37140488  0.11379444  0.17102392     0.03260
C65         C  0.39479792  0.13512179  0.14824851    -0.12890
C66         C  0.39209859  0.13809023  0.10558807     0.00760
C67         C  0.36663652  0.11796477  0.08502629    -0.11410
C68         C  0.34419860  0.09486667  0.10696432     0.03260
C69         C  0.34629037  0.09343567  0.15009341    -0.10830
H70         H  0.41441620  0.15058274  0.16430544     0.08850
H71         H  0.36479276  0.11961759  0.05180018     0.06380
H72         H  0.32822054  0.07667902  0.16742614     0.06230
C73         C  0.37343799  0.25859231  0.17127588     0.03260
C74         C  0.35127655  0.25957646  0.14918389    -0.12890
C75         C  0.34888397  0.25523221  0.10621085     0.00760
C76         C  0.36954403  0.25091317  0.08515428    -0.11410
C77         C  0.39289570  0.25180968  0.10675623     0.03260
C78         C  0.39452600  0.25531730  0.14989659    -0.10830
H79         H  0.33507286  0.26224871  0.16582163     0.08850
H80         H  0.36800607  0.24785818  0.05184056     0.06380
H81         H  0.41182578  0.25484760  0.16699530     0.06230
C82         C  0.37341221  0.25857206  0.35004269     0.03260
C83         C  0.35126072  0.25957751  0.37211423    -0.12890
C84         C  0.34886213  0.25522968  0.41508691     0.00760
C85         C  0.36950293  0.25088335  0.43616393    -0.11410
C86         C  0.39283985  0.25175383  0.41458181     0.03260
C87         C  0.39447910  0.25526629  0.37144167    -0.10830
H88         H  0.33506975  0.26226829  0.35546159     0.08850
H89         H  0.36796390  0.24782910  0.46947825     0.06380
H90         H  0.41177511  0.25478537  0.35435977     0.06230
C91         C  0.22842123  0.11572951  0.35008405     0.03260
C92         C  0.23290266  0.14061879  0.37112713    -0.12890
C93         C  0.23699461  0.14283536  0.41417562     0.00760
C94         C  0.23776266  0.12046472  0.43593841    -0.11410
C95         C  0.23241274  0.09509836  0.41524513     0.03260
C96         C  0.22691748  0.09253743  0.37254419    -0.10830
H97         H  0.23366601  0.15844453  0.35389832     0.08850
H98         H  0.24130496  0.12227174  0.46915913     0.06380
H99         H  0.22318983  0.07318508  0.35625502     0.06230
C100        C  0.22836147  0.11570335  0.17119293     0.03260
C101        C  0.22683459  0.09250801  0.14872754    -0.12890
C102        C  0.23232273  0.09507659  0.10602893     0.00760
C103        C  0.23768339  0.12045050  0.08533915    -0.11410
C104        C  0.23693438  0.14282713  0.10710816     0.03260
C105        C  0.23285349  0.14060216  0.15015769    -0.10830
H106        H  0.22310549  0.07314990  0.16501092     0.08850
H107        H  0.24122576  0.12226028  0.05212016     0.06380
H108        H  0.23363864  0.15843044  0.16739759     0.06230
O109        O  0.26603057  0.32057665  0.09348781    -0.75160
O110        O  0.22776420  0.31583373  0.05519262    -0.54070
C111        C  0.24736362  0.32817225  0.08330786     0.78570
O112        O  0.31568359  0.27188583  0.42658789    -0.59760
O113        O  0.31266656  0.23505503  0.46637868    -0.52790
C114        C  0.32420882  0.25407028  0.43752853     0.70580
O115        O  0.26593458  0.32047542  0.42756516    -0.74320
O116        O  0.22782247  0.31586870  0.46610146    -0.54880
C117        C  0.24734019  0.32814066  0.43787078     0.76590
O118        O  0.31572872  0.27191224  0.09464651    -0.59460
O119        O  0.31263972  0.23501246  0.05495334    -0.52580
C120        C  0.32422131  0.25406311  0.08375627     0.73180
Zr121      Zr  0.27970387  0.28495141  0.07234176     2.54710
O122        O  0.32523026  0.33075494  0.06841548    -0.80030
O123        O  0.28009624  0.28524787  0.14784454    -0.93440
Zr124      Zr  0.27974537  0.28501703  0.44900951     2.64680
O125        O  0.32499329  0.33112793  0.45282414    -0.98400
O126        O  0.28011724  0.28571033  0.37355254    -0.80460
O127        O  0.26563200  0.29900509  0.01067528    -0.83820
O128        O  0.29466819  0.27197927  0.01068353    -2.18530
O129        O  0.22068047  0.17583876  0.09572168    -0.67210
O130        O  0.25756115  0.17917862  0.05560563    -0.51770
C131        C  0.23873578  0.16769208  0.08481749     0.71560
O132        O  0.16872280  0.22080162  0.42757701    -0.60120
O133        O  0.17189834  0.25837242  0.46568339    -0.52090
C134        C  0.16008915  0.23857337  0.43771063     0.73370
O135        O  0.22066843  0.17577317  0.42564186    -0.71510
O136        O  0.25766536  0.17922581  0.46560964    -0.50190
C137        C  0.23878505  0.16768634  0.43647170     0.74750
O138        O  0.16889230  0.22099896  0.09387450    -0.66840
O139        O  0.17188569  0.25838333  0.05549447    -0.54040
C140        C  0.16017709  0.23868717  0.08361915     0.73130
Zr141      Zr  0.20597308  0.20993537  0.07217971     2.77540
O142        O  0.16101851  0.16352407  0.06862198    -0.97590
O143        O  0.20530716  0.21019450  0.14761557    -0.78410
Zr144      Zr  0.20605251  0.20999648  0.44891864     2.70070
O145        O  0.16158093  0.16320479  0.45234369    -0.79660
O146        O  0.20532301  0.21099528  0.37346465    -0.98740
Zr147      Zr  0.21388085  0.27427991  0.01062837     2.21500
Zr148      Zr  0.27111073  0.22038500  0.01061854     2.11130
O149        O  0.21948859  0.19550224  0.01055256    -2.47430
O150        O  0.19081503  0.22283914  0.01054073    -0.79450
O151        O  0.25732229  0.23374170  0.07330546    -0.71650
O152        O  0.22831871  0.26113045  0.44811563    -2.32600
O153        O  0.22826858  0.26108159  0.07318096    -2.28810
O154        O  0.25740231  0.23379910  0.44786488    -0.73410
H155        H  0.31551859  0.28050535  0.01074706     0.78590
H156        H  0.22182892  0.26711043  0.42407284     0.79680
H157        H  0.21152706  0.17476717  0.01047810     0.81900
H158        H  0.22178990  0.26706035  0.09722978     0.79510
H159        H  0.25938284  0.27460254  0.36556199     0.42550
H160        H  0.22492960  0.21518256  0.36498050     0.41520
H161        H  0.15088454  0.16488407  0.47628974     0.41200
H162        H  0.16637967  0.15027223  0.05487037     0.39130
H163        H  0.22598623  0.22198099  0.15564210     0.42260
H164        H  0.26069383  0.28185935  0.15592980     0.37040
H165        H  0.32224382  0.34146752  0.04568452     0.43160
H166        H  0.33869468  0.32671254  0.46738907     0.39580
H167        H  0.15698814  0.15672778  0.09771575     0.44500
H168        H  0.29362399  0.30568777  0.15544763     0.43220
H169        H  0.33213254  0.33516830  0.42388631     0.43350
H170        H  0.19228262  0.19058338  0.36521611     0.43710
O171        O  0.04014617  0.31621142  0.42548647    -0.75160
O172        O  0.07413513  0.31300289  0.46478702    -0.54070
C173        C  0.06653603  0.32446765  0.43579897     0.78570
O174        O  0.44234793  0.26762572  0.09521598    -0.59760
O175        O  0.40832226  0.23082008  0.05545928    -0.52790
C176        C  0.41595225  0.24983186  0.08440676     0.70580
O177        O  0.04014772  0.31613669  0.09592729    -0.74320
O178        O  0.07410414  0.31305837  0.05636912    -0.54880
C179        C  0.06652913  0.32445802  0.08547377     0.76590
O180        O  0.44228575  0.26762321  0.42618436    -0.59460
O181        O  0.40827997  0.23072921  0.46584131    -0.52580
C182        C  0.41589653  0.24978007  0.43694500     0.73180
Zr183      Zr  0.49125130  0.28120199  0.44892900     2.54710
O184        O  0.49166405  0.32691198  0.45473733    -0.80030
O185        O  0.49014658  0.28233521  0.37347616    -0.93440
Zr186      Zr  0.49130070  0.28132641  0.07217932     2.64680
O187        O  0.49224328  0.32729907  0.06616605    -0.98400
O188        O  0.49106288  0.28331909  0.14755819    -0.80460
O189        O  0.01955141  0.29599408  0.01054182    -0.83820
O190        O  0.46322182  0.26805064  0.01056389    -2.18530
O191        O  0.44182058  0.17083338  0.42756525    -0.67210
O192        O  0.40817397  0.17485133  0.46646533    -0.51770
C193        C  0.41552215  0.16277897  0.43819927     0.71560
O194        O  0.03955906  0.21933450  0.09443220    -0.60120
O195        O  0.07358092  0.25690859  0.05568244    -0.52090
C196        C  0.06593621  0.23749625  0.08411863     0.73370
O197        O  0.44184043  0.17072714  0.09367231    -0.71510
O198        O  0.40817042  0.17488016  0.05501027    -0.50190
C199        C  0.41553675  0.16272844  0.08314329     0.74750
O200        O  0.03954270  0.21944813  0.42670782    -0.66840
O201        O  0.07357969  0.25687400  0.46564546    -0.54040
C202        C  0.06592471  0.23753973  0.43709931     0.73130
Zr203      Zr  0.49085908  0.20680094  0.44911922     2.77540
O204        O  0.49140592  0.16144858  0.45141942    -0.97590
O205        O  0.49046726  0.20754983  0.37368593    -0.78410
Zr206      Zr  0.49086191  0.20693717  0.07245727     2.70070
O207        O  0.49070291  0.16123420  0.07134016    -0.79660
O208        O  0.49112129  0.20896627  0.14787654    -0.98740
Zr209      Zr  0.04696679  0.27182645  0.01061203     2.21500
Zr210      Zr  0.43546896  0.21648265  0.01070692     2.11130
O211        O  0.46293125  0.19235179  0.01078830    -2.47430
O212        O  0.01903815  0.22024509  0.01078068    -0.79450
O213        O  0.46273952  0.22994667  0.44803277    -0.71650
O214        O  0.01926364  0.25807727  0.07305331    -2.32600
O215        O  0.01923372  0.25796485  0.44815490    -2.28810
O216        O  0.46272311  0.23006330  0.07343116    -0.73410
H217        H  0.45074899  0.27636973  0.01049571     0.78590
H218        H  0.03167238  0.26414427  0.09717960     0.79680
H219        H  0.45039527  0.17157176  0.01084923     0.81900
H220        H  0.03161824  0.26401718  0.42400842     0.79510
H221        H  0.99989730  0.27171784  0.15658248     0.42550
H222        H  0.47468459  0.21190080  0.15503752     0.41520
H223        H  0.00039507  0.16165115  0.04494974     0.41200
H224        H  0.47377259  0.14799578  0.46719750     0.39130
H225        H  0.48055535  0.21850659  0.36663564     0.42260
H226        H  0.00610530  0.27916916  0.36436381     0.37040
H227        H  0.00812098  0.33884554  0.47351037     0.43160
H228        H  0.47303812  0.32223254  0.05460928     0.39580
H229        H  0.48717348  0.15411608  0.42258930     0.44500
H230        H  0.49686925  0.30281501  0.36646952     0.43220
H231        H  0.49163411  0.33304716  0.09516713     0.43350
H232        H  0.48477783  0.18891210  0.15687375     0.43710
O233        O  0.26374603  0.44752761  0.42739237    -0.75160
O234        O  0.22577635  0.41352689  0.46559356    -0.54070
C235        C  0.24552204  0.42114467  0.43752801     0.78570
O236        O  0.31068775  0.04540328  0.09578637    -0.59760
O237        O  0.30795252  0.07914824  0.05546449    -0.52790
C238        C  0.31919627  0.07170028  0.08478831     0.70580
O239        O  0.26366275  0.44752233  0.09410618    -0.74320
O240        O  0.22583517  0.41355076  0.05563730    -0.54880
C241        C  0.24550255  0.42114757  0.08383067     0.76590
O242        O  0.31073511  0.04544920  0.42566277    -0.59460
O243        O  0.30788822  0.07918111  0.46585881    -0.52580
C244        C  0.31918040  0.07174458  0.43659717     0.73180
Zr245      Zr  0.27609162  0.49634397  0.44890857     2.54710
O246        O  0.32243345  0.49780355  0.45397374    -0.80030
O247        O  0.27719500  0.99629232  0.37341526    -0.93440
Zr248      Zr  0.27615173  0.49630998  0.07232319     2.64680
O249        O  0.32227116  0.49723661  0.06760916    -0.98400
O250        O  0.27710283  0.99558746  0.14775509    -0.80460
O251        O  0.26258658  0.46825621  0.01060223    -0.83820
O252        O  0.29087831  0.02429248  0.01061551    -2.18530
O253        O  0.21524918  0.04540910  0.42684882    -0.67210
O254        O  0.25250739  0.07893332  0.46645679    -0.51770
C255        C  0.23338351  0.07163527  0.43773810     0.71560
O256        O  0.16373477  0.44816455  0.09112046    -0.60120
O257        O  0.16857821  0.41410105  0.05471531    -0.52090
C258        C  0.15573500  0.42182172  0.08140085     0.73370
O259        O  0.21511611  0.04539256  0.09434818    -0.71510
O260        O  0.25253080  0.07893192  0.05498406    -0.50190
C261        C  0.23331469  0.07162346  0.08356001     0.74750
O262        O  0.16386119  0.44812796  0.42995777    -0.66840
O263        O  0.16855721  0.41406352  0.46660085    -0.54040
C264        C  0.15579465  0.42178459  0.43977300     0.73130
Zr265      Zr  0.20186159  0.49652452  0.44906939     2.77540
O266        O  0.15651409  0.49731413  0.44940201    -0.97590
O267        O  0.20328141  0.49505291  0.37372576    -0.78410
Zr268      Zr  0.20198002  0.49653274  0.07240515     2.70070
O269        O  0.15707890  0.49811591  0.07286475    -0.79660
O270        O  0.20380510  0.49453385  0.14768368    -0.98740
Zr271      Zr  0.21093634  0.44048187  0.01062841     2.21500
Zr272      Zr  0.26669533  0.05168022  0.01070638     2.11130
O273        O  0.21506116  0.02435879  0.01074112    -2.47430
O274        O  0.18748385  0.46855352  0.01073406    -0.79450
O275        O  0.25315266  0.02464027  0.44795929    -0.71650
O276        O  0.22475013  0.46806475  0.07321335    -2.32600
O277        O  0.22468182  0.46808669  0.44803687    -2.28810
O278        O  0.25326733  0.02466875  0.07350272    -0.73410
H279        H  0.31169304  0.03689780  0.01054107     0.78590
H280        H  0.21833331  0.45555088  0.09721426     0.79680
H281        H  0.20678089  0.03685510  0.01079859     0.81900
H282        H  0.21827407  0.45559543  0.42401293     0.79510
H283        H  0.25641499  0.48490569  0.15604895     0.42550
H284        H  0.22299416  0.01112367  0.15528110     0.41520
H285        H  0.14879682  0.49141419  0.04486241     0.41200
H286        H  0.16074787  0.01476908  0.46558984     0.39130
H287        H  0.22418464  0.00642738  0.36674279     0.42260
H288        H  0.25819232  0.47974097  0.36505025     0.37040
H289        H  0.31941789  0.48356374  0.47589129     0.43160
H290        H  0.33589329  0.01628249  0.05518874     0.39580
H291        H  0.15424559  0.50214504  0.42051543     0.44500
H292        H  0.29145898  0.49021861  0.36630510     0.43220
H293        H  0.32880689  0.49883973  0.09671987     0.43350
H294        H  0.18965653  0.50011514  0.15747246     0.43710
C295        C  0.24986178  0.11348243  0.23888615    -0.01710
C296        C  0.22758787  0.11481115  0.21698005     0.07970
C297        C  0.20530367  0.11610844  0.23883680    -0.01830
C298        C  0.20532403  0.11612732  0.28245142    -0.01830
C299        C  0.22762328  0.11483727  0.30429578     0.08100
C300        C  0.24988007  0.11349649  0.28237435    -0.02030
Br301      Br  0.28149268  0.11320886  0.31164460    -0.00570
Br302      Br  0.28144272  0.11316373  0.20959203    -0.00650
Br303      Br  0.17437237  0.11720267  0.31216834    -0.00610
Br304      Br  0.17431119  0.11712890  0.20913061    -0.00590
C305        C  0.35107017  0.23544530  0.28240800    -0.01710
C306        C  0.37339751  0.25898818  0.30428234     0.07970
C307        C  0.39585128  0.28241371  0.28246758    -0.01830
C308        C  0.39585427  0.28242138  0.23887274    -0.01830
C309        C  0.37341064  0.25899726  0.21703721     0.08100
C310        C  0.35107910  0.23544755  0.23889257    -0.02030
Br311      Br  0.32105704  0.20243801  0.20935584    -0.00570
Br312      Br  0.32102902  0.20243971  0.31192249    -0.00650
Br313      Br  0.42624448  0.31485630  0.20909296    -0.00610
Br314      Br  0.42625350  0.31482471  0.31227559    -0.00590
C315        C  0.36891587  0.08953310  0.23889821    -0.01710
C316        C  0.37247746  0.11401117  0.21692291     0.07970
C317        C  0.37620635  0.13858810  0.23888393    -0.01830
C318        C  0.37616417  0.13858956  0.28240941    -0.01830
C319        C  0.37240685  0.11402041  0.30443031     0.08100
C320        C  0.36887601  0.08953526  0.28251472    -0.02030
Br321      Br  0.36480439  0.05614627  0.31202468    -0.00570
Br322      Br  0.36492871  0.05615618  0.20946605    -0.00650
Br323      Br  0.37960612  0.17197652  0.31141783    -0.00610
Br324      Br  0.37974150  0.17198993  0.20978975    -0.00590
C325        C  0.12875862  0.25133976  0.28242028    -0.01710
C326        C  0.10803372  0.22682513  0.30444841     0.07970
C327        C  0.08730217  0.20220953  0.28250856    -0.01830
C328        C  0.08731427  0.20222113  0.23873545    -0.01830
C329        C  0.10805598  0.22685026  0.21683120     0.08100
C330        C  0.12876828  0.25135346  0.23889835    -0.02030
Br331      Br  0.15665796  0.28552223  0.20944620    -0.00570
Br332      Br  0.15664270  0.28548372  0.31193076    -0.00650
Br333      Br  0.05953023  0.16830030  0.20872989    -0.00610
Br334      Br  0.05949673  0.16827781  0.31246883    -0.00530
C335        C  0.08013923  0.37411454  0.28250933    -0.01710
C336        C  0.10616355  0.38299671  0.30485650     0.07970
C337        C  0.13257391  0.39409348  0.28244755    -0.01830
C338        C  0.13257749  0.39411304  0.23875420    -0.01830
C339        C  0.10617078  0.38302140  0.21633457     0.08100
C340        C  0.08014057  0.37411634  0.23866276    -0.02030
Br341      Br  0.04450166  0.36365559  0.20944213    -0.00570
Br342      Br  0.04451146  0.36370444  0.31169571    -0.00650
Br343      Br  0.16953398  0.40890120  0.21070734    -0.00610
Br344      Br  0.16952976  0.40883864  0.31049570    -0.00590
C345        C  0.28110776  0.38465041  0.28254180    -0.01710
C346        C  0.25587495  0.37902127  0.30445887     0.07970
C347        C  0.23042253  0.37228937  0.28241339    -0.01830
C348        C  0.23041440  0.37226660  0.23885824    -0.01830
C349        C  0.25585191  0.37894583  0.21682190     0.08100
C350        C  0.28109311  0.38460189  0.23875376    -0.02030
Br351      Br  0.31553877  0.39228630  0.20875350    -0.00570
Br352      Br  0.31558221  0.39243078  0.31256634    -0.00650
Br353      Br  0.19504981  0.36138338  0.20911793    -0.00610
Br354      Br  0.19505614  0.36136864  0.31214867    -0.00590
C355        C  0.25522466  0.37882191  0.67080422     0.03260
C356        C  0.25302216  0.40051350  0.64917956    -0.12890
C357        C  0.24764021  0.39808484  0.60626297     0.00760
C358        C  0.24483181  0.37381216  0.58497540    -0.11410
C359        C  0.24858477  0.35279579  0.60594986     0.03260
C360        C  0.25365314  0.35539345  0.64888304    -0.10830
H361        H  0.25433176  0.41868208  0.66612798     0.08850
H362        H  0.24091486  0.37188658  0.55184683     0.06380
H363        H  0.25534300  0.33864329  0.66554602     0.06230
C364        C  0.25524648  0.37888576  0.85047521     0.03260
C365        C  0.25306001  0.40057174  0.87213843    -0.12890
C366        C  0.24766599  0.39810217  0.91505485     0.00760
C367        C  0.24482920  0.37379793  0.93629240    -0.11410
C368        C  0.24856342  0.35278634  0.91527396     0.03260
C369        C  0.25364087  0.35542541  0.87235062    -0.10830
H370        H  0.25439140  0.41876574  0.85522527     0.08850
H371        H  0.24090443  0.37184413  0.96941722     0.06380
H372        H  0.25531242  0.33868109  0.85565167     0.06230
C373        C  0.10588155  0.37997596  0.85120939     0.03260
C374        C  0.12551842  0.40326374  0.87599562    -0.12890
C375        C  0.13063317  0.39880112  0.91732077     0.00760
C376        C  0.11232730  0.37205148  0.93617799    -0.11410
C377        C  0.08944888  0.34987833  0.91372539     0.03260
C378        C  0.08737363  0.35330281  0.87079065    -0.10830
H379        H  0.13855048  0.42443782  0.86209259     0.08850
H380        H  0.11496039  0.36905637  0.96880185     0.06380
H381        H  0.07138493  0.33515336  0.85278301     0.06230
C382        C  0.10589124  0.38000116  0.66998908     0.03260
C383        C  0.12548924  0.40329790  0.64518341    -0.12890
C384        C  0.13057889  0.39883673  0.60384906     0.00760
C385        C  0.11229278  0.37207154  0.58501790    -0.11410
C386        C  0.08945780  0.34988026  0.60750777     0.03260
C387        C  0.08741643  0.35331048  0.65044030    -0.10830
H388        H  0.13851627  0.42447740  0.65907541     0.08850
H389        H  0.11490916  0.36907629  0.55239149     0.06380
H390        H  0.07146862  0.33515359  0.66847469     0.06230
C391        C  0.10814893  0.22772235  0.67084482     0.03260
C392        C  0.08645689  0.23003182  0.64944673    -0.12890
C393        C  0.08903838  0.23570542  0.60663729     0.00760
C394        C  0.11371150  0.23949218  0.58541600    -0.11410
C395        C  0.13489323  0.23599619  0.60617156     0.03260
C396        C  0.13173851  0.22962631  0.64873719    -0.10830
H397        H  0.06814287  0.22847598  0.66639421     0.08850
H398        H  0.11586076  0.24401504  0.55244082     0.06380
H399        H  0.14843542  0.22768234  0.66522410     0.06230
C400        C  0.10810069  0.22767575  0.85043317     0.03260
C401        C  0.08643741  0.23005076  0.87178817    -0.12890
C402        C  0.08901568  0.23572814  0.91459517     0.00760
C403        C  0.11365870  0.23945172  0.93585672    -0.11410
C404        C  0.13480670  0.23588885  0.91514469     0.03260
C405        C  0.13165402  0.22951597  0.87258024    -0.10830
H406        H  0.06815028  0.22853995  0.85480959     0.08850
H407        H  0.11581096  0.24397918  0.96883004     0.06380
H408        H  0.14833422  0.22753274  0.85612262     0.06230
C409        C  0.37132891  0.11384171  0.85032812     0.03260
C410        C  0.39472870  0.13518349  0.87308459    -0.12890
C411        C  0.39205846  0.13815669  0.91574778     0.00760
C412        C  0.36660829  0.11802696  0.93632830    -0.11410
C413        C  0.34416064  0.09492354  0.91440705     0.03260
C414        C  0.34622620  0.09348718  0.87127616    -0.10830
H415        H  0.41433704  0.15063847  0.85701224     0.08850
H416        H  0.36478390  0.11967447  0.96955776     0.06380
H417        H  0.32815145  0.07671917  0.85395923     0.06230
C418        C  0.37140488  0.11379445  0.67102391     0.03260
C419        C  0.39479792  0.13512179  0.64824851    -0.12890
C420        C  0.39209859  0.13809023  0.60558807     0.00760
C421        C  0.36663652  0.11796478  0.58502629    -0.11410
C422        C  0.34419860  0.09486668  0.60696432     0.03260
C423        C  0.34629037  0.09343568  0.65009341    -0.10830
H424        H  0.41441619  0.15058275  0.66430543     0.08850
H425        H  0.36479276  0.11961759  0.55180018     0.06380
H426        H  0.32822053  0.07667903  0.66742614     0.06230
C427        C  0.37343799  0.25859231  0.67127588     0.03260
C428        C  0.35127656  0.25957647  0.64918389    -0.12890
C429        C  0.34888397  0.25523221  0.60621085     0.00760
C430        C  0.36954403  0.25091318  0.58515428    -0.11410
C431        C  0.39289570  0.25180968  0.60675623     0.03260
C432        C  0.39452600  0.25531731  0.64989659    -0.10830
H433        H  0.33507286  0.26224872  0.66582163     0.08850
H434        H  0.36800607  0.24785819  0.55184056     0.06380
H435        H  0.41182578  0.25484761  0.66699530     0.06230
C436        C  0.37341221  0.25857205  0.85004269     0.03260
C437        C  0.35126072  0.25957750  0.87211423    -0.12890
C438        C  0.34886212  0.25522967  0.91508691     0.00760
C439        C  0.36950293  0.25088335  0.93616393    -0.11410
C440        C  0.39283984  0.25175382  0.91458181     0.03260
C441        C  0.39447910  0.25526629  0.87144167    -0.10830
H442        H  0.33506975  0.26226829  0.85546159     0.08850
H443        H  0.36796390  0.24782909  0.96947825     0.06380
H444        H  0.41177510  0.25478536  0.85435977     0.06230
C445        C  0.22842123  0.11572950  0.85008405     0.03260
C446        C  0.23290266  0.14061879  0.87112713    -0.12890
C447        C  0.23699460  0.14283536  0.91417562     0.00760
C448        C  0.23776266  0.12046472  0.93593841    -0.11410
C449        C  0.23241274  0.09509836  0.91524513     0.03260
C450        C  0.22691748  0.09253742  0.87254419    -0.10830
H451        H  0.23366601  0.15844453  0.85389832     0.08850
H452        H  0.24130496  0.12227174  0.96915914     0.06380
H453        H  0.22318984  0.07318508  0.85625502     0.06230
C454        C  0.22836147  0.11570335  0.67119293     0.03260
C455        C  0.22683459  0.09250801  0.64872755    -0.12890
C456        C  0.23232273  0.09507660  0.60602893     0.00760
C457        C  0.23768338  0.12045050  0.58533915    -0.11410
C458        C  0.23693438  0.14282713  0.60710816     0.03260
C459        C  0.23285349  0.14060216  0.65015769    -0.10830
H460        H  0.22310549  0.07314991  0.66501092     0.08850
H461        H  0.24122576  0.12226028  0.55212017     0.06380
H462        H  0.23363864  0.15843044  0.66739759     0.06230
O463        O  0.26603057  0.32057666  0.59348781    -0.75160
O464        O  0.22776420  0.31583373  0.55519262    -0.54070
C465        C  0.24736362  0.32817225  0.58330786     0.78570
O466        O  0.31568359  0.27188583  0.92658789    -0.59760
O467        O  0.31266656  0.23505502  0.96637868    -0.52790
C468        C  0.32420882  0.25407028  0.93752853     0.70580
O469        O  0.26593458  0.32047541  0.92756516    -0.74320
O470        O  0.22782247  0.31586870  0.96610146    -0.54880
C471        C  0.24734019  0.32814065  0.93787078     0.76590
O472        O  0.31572873  0.27191224  0.59464651    -0.59460
O473        O  0.31263972  0.23501246  0.55495334    -0.52580
C474        C  0.32422131  0.25406311  0.58375627     0.73180
Zr475      Zr  0.27970387  0.28495142  0.57234176     2.54710
O476        O  0.32523026  0.33075494  0.56841549    -0.80030
O477        O  0.28009624  0.28524787  0.64784454    -0.93440
Zr478      Zr  0.27974537  0.28501703  0.94900951     2.64680
O479        O  0.32499329  0.33112793  0.95282415    -0.98400
O480        O  0.28011724  0.28571033  0.87355254    -0.80460
O481        O  0.26563201  0.29900509  0.51067528    -0.83820
O482        O  0.29466819  0.27197927  0.51068353    -2.18530
O483        O  0.22068047  0.17583876  0.59572169    -0.67210
O484        O  0.25756115  0.17917862  0.55560564    -0.51770
C485        C  0.23873578  0.16769208  0.58481750     0.71560
O486        O  0.16872280  0.22080161  0.92757701    -0.60120
O487        O  0.17189834  0.25837242  0.96568339    -0.52090
C488        C  0.16008915  0.23857337  0.93771063     0.73370
O489        O  0.22066843  0.17577317  0.92564186    -0.71510
O490        O  0.25766536  0.17922580  0.96560964    -0.50190
C491        C  0.23878505  0.16768633  0.93647170     0.74750
O492        O  0.16889230  0.22099897  0.59387450    -0.66840
O493        O  0.17188570  0.25838334  0.55549447    -0.54040
C494        C  0.16017709  0.23868717  0.58361915     0.73130
Zr495      Zr  0.20597308  0.20993538  0.57217971     2.77540
O496        O  0.16101852  0.16352407  0.56862198    -0.97590
O497        O  0.20530716  0.21019451  0.64761557    -0.78410
Zr498      Zr  0.20605251  0.20999648  0.94891863     2.70070
O499        O  0.16158093  0.16320479  0.95234368    -0.79660
O500        O  0.20532301  0.21099528  0.87346465    -0.98740
Zr501      Zr  0.21388085  0.27427991  0.51062837     2.21500
Zr502      Zr  0.27111074  0.22038500  0.51061855     2.11130
O503        O  0.21948859  0.19550225  0.51055257    -2.47430
O504        O  0.19081503  0.22283914  0.51054073    -0.79450
O505        O  0.25732229  0.23374170  0.57330546    -0.71650
O506        O  0.22831871  0.26113045  0.94811562    -2.32600
O507        O  0.22826859  0.26108159  0.57318096    -2.28810
O508        O  0.25740231  0.23379910  0.94786488    -0.73410
H509        H  0.31551860  0.28050536  0.51074706     0.78590
H510        H  0.22182892  0.26711043  0.92407284     0.79680
H511        H  0.21152707  0.17476717  0.51047810     0.81900
H512        H  0.22178990  0.26706035  0.59722978     0.79510
H513        H  0.25938284  0.27460253  0.86556199     0.42550
H514        H  0.22492960  0.21518255  0.86498050     0.41520
H515        H  0.15088453  0.16488407  0.97628973     0.41200
H516        H  0.16637967  0.15027224  0.55487038     0.39130
H517        H  0.22598624  0.22198099  0.65564210     0.42260
H518        H  0.26069383  0.28185935  0.65592980     0.37040
H519        H  0.32224383  0.34146752  0.54568451     0.43160
H520        H  0.33869467  0.32671254  0.96738907     0.39580
H521        H  0.15698814  0.15672779  0.59771576     0.44500
H522        H  0.29362399  0.30568777  0.65544764     0.43220
H523        H  0.33213254  0.33516830  0.92388631     0.43350
H524        H  0.19228262  0.19058337  0.86521611     0.43710
O525        O  0.04014617  0.31621142  0.92548648    -0.75160
O526        O  0.07413513  0.31300289  0.96478702    -0.54070
C527        C  0.06653603  0.32446765  0.93579897     0.78570
O528        O  0.44234794  0.26762572  0.59521598    -0.59760
O529        O  0.40832226  0.23082008  0.55545928    -0.52790
C530        C  0.41595225  0.24983187  0.58440676     0.70580
O531        O  0.04014772  0.31613669  0.59592729    -0.74320
O532        O  0.07410415  0.31305837  0.55636912    -0.54880
C533        C  0.06652913  0.32445803  0.58547377     0.76590
O534        O  0.44228575  0.26762320  0.92618436    -0.59460
O535        O  0.40827997  0.23072920  0.96584131    -0.52580
C536        C  0.41589653  0.24978006  0.93694500     0.73180
Zr537      Zr  0.49125129  0.28120199  0.94892900     2.54710
O538        O  0.49166404  0.32691197  0.95473732    -0.80030
O539        O  0.49014658  0.28233519  0.87347616    -0.93440
Zr540      Zr  0.49130070  0.28132642  0.57217932     2.64680
O541        O  0.49224329  0.32729907  0.56616604    -0.98400
O542        O  0.49106288  0.28331911  0.64755819    -0.80460
O543        O  0.01955141  0.29599408  0.51054182    -0.83820
O544        O  0.46322182  0.26805065  0.51056388    -2.18530
O545        O  0.44182058  0.17083337  0.92756525    -0.67210
O546        O  0.40817397  0.17485133  0.96646534    -0.51770
C547        C  0.41552214  0.16277897  0.93819927     0.71560
O548        O  0.03955907  0.21933450  0.59443220    -0.60120
O549        O  0.07358092  0.25690860  0.55568244    -0.52090
C550        C  0.06593621  0.23749625  0.58411863     0.73370
O551        O  0.44184043  0.17072714  0.59367231    -0.71510
O552        O  0.40817042  0.17488016  0.55501026    -0.50190
C553        C  0.41553675  0.16272845  0.58314328     0.74750
O554        O  0.03954270  0.21944813  0.92670782    -0.66840
O555        O  0.07357969  0.25687399  0.96564546    -0.54040
C556        C  0.06592471  0.23753972  0.93709931     0.73130
Zr557      Zr  0.49085908  0.20680094  0.94911922     2.77540
O558        O  0.49140591  0.16144857  0.95141943    -0.97590
O559        O  0.49046725  0.20754982  0.87368594    -0.78410
Zr560      Zr  0.49086191  0.20693718  0.57245727     2.70070
O561        O  0.49070290  0.16123420  0.57134016    -0.79660
O562        O  0.49112129  0.20896628  0.64787654    -0.98740
Zr563      Zr  0.04696679  0.27182646  0.51061203     2.21500
Zr564      Zr  0.43546897  0.21648265  0.51070692     2.11130
O565        O  0.46293125  0.19235180  0.51078830    -2.47430
O566        O  0.01903815  0.22024509  0.51078068    -0.79450
O567        O  0.46273952  0.22994667  0.94803277    -0.71650
O568        O  0.01926364  0.25807728  0.57305330    -2.32600
O569        O  0.01923372  0.25796485  0.94815491    -2.28810
O570        O  0.46272311  0.23006330  0.57343116    -0.73410
H571        H  0.45074899  0.27636974  0.51049571     0.78590
H572        H  0.03167238  0.26414427  0.59717960     0.79680
H573        H  0.45039527  0.17157176  0.51084923     0.81900
H574        H  0.03161824  0.26401718  0.92400842     0.79510
H575        H  0.99989729  0.27171784  0.65658249     0.42550
H576        H  0.47468459  0.21190081  0.65503752     0.41520
H577        H  0.00039506  0.16165115  0.54494974     0.41200
H578        H  0.47377258  0.14799578  0.96719751     0.39130
H579        H  0.48055534  0.21850658  0.86663564     0.42260
H580        H  0.00610530  0.27916915  0.86436381     0.37040
H581        H  0.00812096  0.33884553  0.97351038     0.43160
H582        H  0.47303812  0.32223255  0.55460929     0.39580
H583        H  0.48717348  0.15411607  0.92258932     0.44500
H584        H  0.49686924  0.30281499  0.86646951     0.43220
H585        H  0.49163414  0.33304718  0.59516711     0.43350
H586        H  0.48477783  0.18891210  0.65687375     0.43710
O587        O  0.26374603  0.44752760  0.92739237    -0.75160
O588        O  0.22577635  0.41352688  0.96559356    -0.54070
C589        C  0.24552203  0.42114467  0.93752801     0.78570
O590        O  0.31068775  0.04540328  0.59578637    -0.59760
O591        O  0.30795252  0.07914825  0.55546449    -0.52790
C592        C  0.31919627  0.07170029  0.58478831     0.70580
O593        O  0.26366275  0.44752234  0.59410618    -0.74320
O594        O  0.22583517  0.41355076  0.55563729    -0.54880
C595        C  0.24550255  0.42114757  0.58383066     0.76590
O596        O  0.31073511  0.04544920  0.92566277    -0.59460
O597        O  0.30788822  0.07918111  0.96585881    -0.52580
C598        C  0.31918039  0.07174458  0.93659717     0.73180
Zr599      Zr  0.27609163  0.49634397  0.94890857     2.54710
O600        O  0.32243345  0.49780354  0.95397377    -0.80030
O601        O  0.27719500  0.99629231  0.87341526    -0.93440
Zr602      Zr  0.27615173  0.49630998  0.57232318     2.64680
O603        O  0.32227116  0.49723661  0.56760916    -0.98400
O604        O  0.27710282  0.99558747  0.64775509    -0.80460
O605        O  0.26258657  0.46825621  0.51060223    -0.83820
O606        O  0.29087831  0.02429249  0.51061551    -2.18530
O607        O  0.21524918  0.04540910  0.92684883    -0.67210
O608        O  0.25250739  0.07893332  0.96645680    -0.51770
C609        C  0.23338351  0.07163527  0.93773810     0.71560
O610        O  0.16373477  0.44816455  0.59112046    -0.60120
O611        O  0.16857821  0.41410105  0.55471531    -0.52090
C612        C  0.15573500  0.42182172  0.58140085     0.73370
O613        O  0.21511610  0.04539256  0.59434817    -0.71510
O614        O  0.25253080  0.07893192  0.55498406    -0.50190
C615        C  0.23331469  0.07162346  0.58356001     0.74750
O616        O  0.16386119  0.44812796  0.92995778    -0.66840
O617        O  0.16855721  0.41406351  0.96660085    -0.54040
C618        C  0.15579465  0.42178459  0.93977300     0.73130
Zr619      Zr  0.20186160  0.49652452  0.94906939     2.77540
O620        O  0.15651409  0.49731413  0.94940200    -0.97590
O621        O  0.20328142  0.49505291  0.87372576    -0.78410
Zr622      Zr  0.20198002  0.49653274  0.57240515     2.70070
O623        O  0.15707889  0.49811591  0.57286475    -0.79660
O624        O  0.20380509  0.49453385  0.64768368    -0.98740
Zr625      Zr  0.21093634  0.44048187  0.51062841     2.21500
Zr626      Zr  0.26669533  0.05168023  0.51070638     2.11130
O627        O  0.21506116  0.02435879  0.51074112    -2.47430
O628        O  0.18748385  0.46855352  0.51073406    -0.79450
O629        O  0.25315266  0.02464027  0.94795929    -0.71650
O630        O  0.22475013  0.46806475  0.57321335    -2.32600
O631        O  0.22468182  0.46808669  0.94803687    -2.28810
O632        O  0.25326733  0.02466875  0.57350272    -0.73410
H633        H  0.31169304  0.03689781  0.51054108     0.78590
H634        H  0.21833331  0.45555088  0.59721425     0.79680
H635        H  0.20678089  0.03685510  0.51079859     0.81900
H636        H  0.21827407  0.45559543  0.92401293     0.79510
H637        H  0.25641499  0.48490569  0.65604894     0.42550
H638        H  0.22299414  0.01112366  0.65528110     0.41520
H639        H  0.14879681  0.49141417  0.54486241     0.41200
H640        H  0.16074787  0.01476908  0.96558986     0.39130
H641        H  0.22418463  0.00642736  0.86674279     0.42260
H642        H  0.25819234  0.47974097  0.86505025     0.37040
H643        H  0.31941788  0.48356372  0.97589129     0.43160
H644        H  0.33589328  0.01628248  0.55518874     0.39580
H645        H  0.15424560  0.50214505  0.92051542     0.44500
H646        H  0.29145900  0.49021860  0.86630511     0.43220
H647        H  0.32880690  0.49883975  0.59671987     0.43350
H648        H  0.18965653  0.50011514  0.65747246     0.43710
C649        C  0.24986178  0.11348244  0.73888615    -0.01710
C650        C  0.22758787  0.11481115  0.71698006     0.07970
C651        C  0.20530367  0.11610844  0.73883680    -0.01830
C652        C  0.20532403  0.11612731  0.78245142    -0.01830
C653        C  0.22762328  0.11483727  0.80429578     0.08100
C654        C  0.24988007  0.11349649  0.78237435    -0.02030
Br655      Br  0.28149268  0.11320886  0.81164460    -0.00570
Br656      Br  0.28144273  0.11316374  0.70959203    -0.00650
Br657      Br  0.17437237  0.11720267  0.81216835    -0.00610
Br658      Br  0.17431119  0.11712890  0.70913062    -0.00590
C659        C  0.35107017  0.23544530  0.78240799    -0.01710
C660        C  0.37339751  0.25898818  0.80428234     0.07970
C661        C  0.39585129  0.28241371  0.78246759    -0.01830
C662        C  0.39585427  0.28242138  0.73887274    -0.01830
C663        C  0.37341064  0.25899726  0.71703721     0.08100
C664        C  0.35107910  0.23544756  0.73889257    -0.02030
Br665      Br  0.32105704  0.20243802  0.70935584    -0.00570
Br666      Br  0.32102901  0.20243971  0.81192248    -0.00650
Br667      Br  0.42624449  0.31485630  0.70909296    -0.00610
Br668      Br  0.42625351  0.31482470  0.81227560    -0.00590
C669        C  0.36891587  0.08953311  0.73889820    -0.01710
C670        C  0.37247745  0.11401117  0.71692291     0.07970
C671        C  0.37620635  0.13858810  0.73888393    -0.01830
C672        C  0.37616417  0.13858956  0.78240941    -0.01830
C673        C  0.37240685  0.11402041  0.80443031     0.08100
C674        C  0.36887601  0.08953527  0.78251471    -0.02030
Br675      Br  0.36480438  0.05614628  0.81202467    -0.00570
Br676      Br  0.36492871  0.05615618  0.70946604    -0.00650
Br677      Br  0.37960611  0.17197652  0.81141783    -0.00610
Br678      Br  0.37974149  0.17198994  0.70978976    -0.00590
C679        C  0.12875862  0.25133976  0.78242028    -0.01710
C680        C  0.10803372  0.22682513  0.80444841     0.07970
C681        C  0.08730217  0.20220953  0.78250856    -0.01830
C682        C  0.08731427  0.20222113  0.73873545    -0.01830
C683        C  0.10805598  0.22685026  0.71683120     0.08100
C684        C  0.12876828  0.25135346  0.73889835    -0.02030
Br685      Br  0.15665795  0.28552223  0.70944620    -0.00570
Br686      Br  0.15664269  0.28548372  0.81193076    -0.00650
Br687      Br  0.05953023  0.16830030  0.70872988    -0.00610
Br688      Br  0.05949674  0.16827781  0.81246883    -0.00530
C689        C  0.08013923  0.37411454  0.78250933    -0.01710
C690        C  0.10616355  0.38299671  0.80485650     0.07970
C691        C  0.13257391  0.39409348  0.78244756    -0.01830
C692        C  0.13257749  0.39411304  0.73875421    -0.01830
C693        C  0.10617078  0.38302140  0.71633457     0.08100
C694        C  0.08014057  0.37411634  0.73866277    -0.02030
Br695      Br  0.04450166  0.36365558  0.70944213    -0.00570
Br696      Br  0.04451146  0.36370443  0.81169571    -0.00650
Br697      Br  0.16953398  0.40890121  0.71070735    -0.00610
Br698      Br  0.16952976  0.40883865  0.81049571    -0.00590
C699        C  0.28110776  0.38465041  0.78254180    -0.01710
C700        C  0.25587494  0.37902127  0.80445887     0.07970
C701        C  0.23042253  0.37228937  0.78241339    -0.01830
C702        C  0.23041440  0.37226660  0.73885823    -0.01830
C703        C  0.25585191  0.37894584  0.71682190     0.08100
C704        C  0.28109311  0.38460190  0.73875376    -0.02030
Br705      Br  0.31553878  0.39228631  0.70875350    -0.00570
Br706      Br  0.31558221  0.39243077  0.81256634    -0.00650
Br707      Br  0.19504982  0.36138338  0.70911792    -0.00610
Br708      Br  0.19505614  0.36136864  0.81214866    -0.00590
C709        C  0.25522466  0.87882191  0.17080422     0.03260
C710        C  0.25302216  0.90051349  0.14917956    -0.12890
C711        C  0.24764021  0.89808484  0.10626296     0.00760
C712        C  0.24483181  0.87381215  0.08497540    -0.11410
C713        C  0.24858476  0.85279579  0.10594985     0.03260
C714        C  0.25365313  0.85539345  0.14888303    -0.10830
H715        H  0.25433175  0.91868207  0.16612797     0.08850
H716        H  0.24091485  0.87188657  0.05184682     0.06380
H717        H  0.25534300  0.83864328  0.16554601     0.06230
C718        C  0.25524647  0.87888575  0.35047520     0.03260
C719        C  0.25306000  0.90057173  0.37213842    -0.12890
C720        C  0.24766599  0.89810216  0.41505485     0.00760
C721        C  0.24482919  0.87379793  0.43629239    -0.11410
C722        C  0.24856342  0.85278634  0.41527396     0.03260
C723        C  0.25364086  0.85542540  0.37235062    -0.10830
H724        H  0.25439139  0.91876573  0.35522526     0.08850
H725        H  0.24090443  0.87184413  0.46941721     0.06380
H726        H  0.25531241  0.83868108  0.35565167     0.06230
C727        C  0.10588154  0.87997596  0.35120939     0.03260
C728        C  0.12551842  0.90326374  0.37599562    -0.12890
C729        C  0.13063316  0.89880112  0.41732076     0.00760
C730        C  0.11232729  0.87205148  0.43617798    -0.11410
C731        C  0.08944888  0.84987833  0.41372539     0.03260
C732        C  0.08737363  0.85330281  0.37079064    -0.10830
H733        H  0.13855048  0.92443782  0.36209258     0.08850
H734        H  0.11496038  0.86905637  0.46880185     0.06380
H735        H  0.07138492  0.83515335  0.35278301     0.06230
C736        C  0.10589124  0.88000116  0.16998908     0.03260
C737        C  0.12548924  0.90329790  0.14518340    -0.12890
C738        C  0.13057889  0.89883673  0.10384905     0.00760
C739        C  0.11229278  0.87207154  0.08501789    -0.11410
C740        C  0.08945779  0.84988026  0.10750777     0.03260
C741        C  0.08741643  0.85331048  0.15044029    -0.10830
H742        H  0.13851627  0.92447739  0.15907541     0.08850
H743        H  0.11490916  0.86907629  0.05239149     0.06380
H744        H  0.07146862  0.83515359  0.16847469     0.06230
C745        C  0.10814893  0.72772235  0.17084482     0.03260
C746        C  0.08645689  0.73003182  0.14944673    -0.12890
C747        C  0.08903838  0.73570542  0.10663729     0.00760
C748        C  0.11371149  0.73949218  0.08541600    -0.11410
C749        C  0.13489323  0.73599618  0.10617156     0.03260
C750        C  0.13173851  0.72962631  0.14873719    -0.10830
H751        H  0.06814287  0.72847599  0.16639421     0.08850
H752        H  0.11586075  0.74401503  0.05244082     0.06380
H753        H  0.14843542  0.72768234  0.16522410     0.06230
C754        C  0.10810069  0.72767575  0.35043317     0.03260
C755        C  0.08643741  0.73005075  0.37178817    -0.12890
C756        C  0.08901567  0.73572813  0.41459517     0.00760
C757        C  0.11365869  0.73945172  0.43585672    -0.11410
C758        C  0.13480669  0.73588885  0.41514470     0.03260
C759        C  0.13165402  0.72951597  0.37258024    -0.10830
H760        H  0.06815028  0.72853995  0.35480959     0.08850
H761        H  0.11581096  0.74397918  0.46883004     0.06380
H762        H  0.14833421  0.72753273  0.35612263     0.06230
C763        C  0.37132890  0.61384172  0.35032813     0.03260
C764        C  0.39472870  0.63518350  0.37308459    -0.12890
C765        C  0.39205845  0.63815670  0.41574778     0.00760
C766        C  0.36660829  0.61802697  0.43632830    -0.11410
C767        C  0.34416064  0.59492355  0.41440706     0.03260
C768        C  0.34622620  0.59348718  0.37127616    -0.10830
H769        H  0.41433703  0.65063848  0.35701224     0.08850
H770        H  0.36478390  0.61967447  0.46955776     0.06380
H771        H  0.32815145  0.57671918  0.35395924     0.06230
C772        C  0.37140488  0.61379445  0.17102392     0.03260
C773        C  0.39479792  0.63512179  0.14824851    -0.12890
C774        C  0.39209859  0.63809023  0.10558807     0.00760
C775        C  0.36663653  0.61796478  0.08502629    -0.11410
C776        C  0.34419861  0.59486668  0.10696433     0.03260
C777        C  0.34629037  0.59343567  0.15009341    -0.10830
H778        H  0.41441620  0.65058275  0.16430544     0.08850
H779        H  0.36479276  0.61961759  0.05180018     0.06380
H780        H  0.32822054  0.57667903  0.16742614     0.06230
C781        C  0.37343799  0.75859231  0.17127588     0.03260
C782        C  0.35127655  0.75957646  0.14918389    -0.12890
C783        C  0.34888397  0.75523221  0.10621085     0.00760
C784        C  0.36954403  0.75091318  0.08515427    -0.11410
C785        C  0.39289570  0.75180968  0.10675622     0.03260
C786        C  0.39452600  0.75531731  0.14989659    -0.10830
H787        H  0.33507286  0.76224871  0.16582163     0.08850
H788        H  0.36800607  0.74785819  0.05184056     0.06380
H789        H  0.41182578  0.75484761  0.16699530     0.06230
C790        C  0.37341221  0.75857205  0.35004269     0.03260
C791        C  0.35126071  0.75957750  0.37211422    -0.12890
C792        C  0.34886212  0.75522967  0.41508690     0.00760
C793        C  0.36950292  0.75088335  0.43616393    -0.11410
C794        C  0.39283984  0.75175383  0.41458181     0.03260
C795        C  0.39447910  0.75526629  0.37144167    -0.10830
H796        H  0.33506974  0.76226828  0.35546158     0.08850
H797        H  0.36796390  0.74782910  0.46947824     0.06380
H798        H  0.41177511  0.75478537  0.35435977     0.06230
C799        C  0.22842122  0.61572950  0.35008405     0.03260
C800        C  0.23290266  0.64061879  0.37112713    -0.12890
C801        C  0.23699460  0.64283536  0.41417562     0.00760
C802        C  0.23776265  0.62046472  0.43593841    -0.11410
C803        C  0.23241274  0.59509835  0.41524513     0.03260
C804        C  0.22691748  0.59253742  0.37254420    -0.10830
H805        H  0.23366601  0.65844453  0.35389832     0.08850
H806        H  0.24130496  0.62227174  0.46915914     0.06380
H807        H  0.22318983  0.57318508  0.35625503     0.06230
C808        C  0.22836146  0.61570335  0.17119294     0.03260
C809        C  0.22683458  0.59250800  0.14872755    -0.12890
C810        C  0.23232273  0.59507659  0.10602893     0.00760
C811        C  0.23768338  0.62045049  0.08533916    -0.11410
C812        C  0.23693438  0.64282713  0.10710816     0.03260
C813        C  0.23285349  0.64060216  0.15015769    -0.10830
H814        H  0.22310548  0.57314990  0.16501092     0.08850
H815        H  0.24122576  0.62226028  0.05212017     0.06380
H816        H  0.23363864  0.65843044  0.16739759     0.06230
O817        O  0.26603057  0.82057665  0.09348781    -0.75160
O818        O  0.22776420  0.81583373  0.05519261    -0.54070
C819        C  0.24736362  0.82817225  0.08330786     0.78570
O820        O  0.31568359  0.77188582  0.42658788    -0.59760
O821        O  0.31266656  0.73505502  0.46637867    -0.52790
C822        C  0.32420881  0.75407027  0.43752852     0.70580
O823        O  0.26593458  0.82047541  0.42756515    -0.74320
O824        O  0.22782246  0.81586869  0.46610146    -0.54880
C825        C  0.24734018  0.82814065  0.43787078     0.76590
O826        O  0.31572872  0.77191224  0.09464651    -0.59460
O827        O  0.31263972  0.73501246  0.05495334    -0.52580
C828        C  0.32422131  0.75406311  0.08375627     0.73180
Zr829      Zr  0.27970387  0.78495141  0.07234176     2.54710
O830        O  0.32523025  0.83075494  0.06841549    -0.80030
O831        O  0.28009624  0.78524787  0.14784454    -0.93440
Zr832      Zr  0.27974537  0.78501703  0.44900951     2.64680
O833        O  0.32499328  0.83112793  0.45282414    -0.98400
O834        O  0.28011723  0.78571033  0.37355254    -0.80460
O835        O  0.26563200  0.79900508  0.01067528    -0.83820
O836        O  0.29466819  0.77197927  0.01068353    -2.18530
O837        O  0.22068047  0.67583876  0.09572169    -0.67210
O838        O  0.25756115  0.67917862  0.05560564    -0.51770
C839        C  0.23873577  0.66769208  0.08481750     0.71560
O840        O  0.16872280  0.72080161  0.42757701    -0.60120
O841        O  0.17189834  0.75837242  0.46568339    -0.52090
C842        C  0.16008914  0.73857336  0.43771063     0.73370
O843        O  0.22066843  0.67577317  0.42564186    -0.71510
O844        O  0.25766536  0.67922580  0.46560964    -0.50190
C845        C  0.23878505  0.66768633  0.43647170     0.74750
O846        O  0.16889230  0.72099896  0.09387450    -0.66840
O847        O  0.17188569  0.75838333  0.05549447    -0.54040
C848        C  0.16017709  0.73868717  0.08361915     0.73130
Zr849      Zr  0.20597308  0.70993537  0.07217971     2.77540
O850        O  0.16101851  0.66352407  0.06862197    -0.97590
O851        O  0.20530715  0.71019449  0.14761556    -0.78410
Zr852      Zr  0.20605250  0.70999648  0.44891864     2.70070
O853        O  0.16158092  0.66320478  0.45234368    -0.79660
O854        O  0.20532301  0.71099528  0.37346465    -0.98740
Zr855      Zr  0.21388085  0.77427991  0.01062837     2.21500
Zr856      Zr  0.27111073  0.72038500  0.01061855     2.11130
O857        O  0.21948858  0.69550224  0.01055256    -2.47430
O858        O  0.19081503  0.72283914  0.01054073    -0.79450
O859        O  0.25732229  0.73374170  0.07330546    -0.71650
O860        O  0.22831870  0.76113045  0.44811562    -2.32600
O861        O  0.22826858  0.76108158  0.07318095    -2.28810
O862        O  0.25740231  0.73379910  0.44786488    -0.73410
H863        H  0.31551859  0.78050535  0.01074706     0.78590
H864        H  0.22182891  0.76711043  0.42407283     0.79680
H865        H  0.21152706  0.67476717  0.01047810     0.81900
H866        H  0.22178990  0.76706034  0.09722978     0.79510
H867        H  0.25938283  0.77460254  0.36556199     0.42550
H868        H  0.22492960  0.71518255  0.36498050     0.41520
H869        H  0.15088454  0.66488406  0.47628974     0.41200
H870        H  0.16637967  0.65027223  0.05487037     0.39130
H871        H  0.22598622  0.72198099  0.15564210     0.42260
H872        H  0.26069383  0.78185935  0.15592979     0.37040
H873        H  0.32224382  0.84146751  0.04568451     0.43160
H874        H  0.33869467  0.82671254  0.46738906     0.39580
H875        H  0.15698813  0.65672779  0.09771574     0.44500
H876        H  0.29362399  0.80568777  0.15544763     0.43220
H877        H  0.33213253  0.83516830  0.42388630     0.43350
H878        H  0.19228262  0.69058338  0.36521611     0.43710
O879        O  0.04014617  0.81621142  0.42548647    -0.75160
O880        O  0.07413512  0.81300289  0.46478702    -0.54070
C881        C  0.06653603  0.82446765  0.43579897     0.78570
O882        O  0.44234794  0.76762572  0.09521597    -0.59760
O883        O  0.40832226  0.73082008  0.05545928    -0.52790
C884        C  0.41595225  0.74983187  0.08440676     0.70580
O885        O  0.04014772  0.81613669  0.09592729    -0.74320
O886        O  0.07410414  0.81305836  0.05636912    -0.54880
C887        C  0.06652913  0.82445802  0.08547377     0.76590
O888        O  0.44228575  0.76762321  0.42618435    -0.59460
O889        O  0.40827997  0.73072921  0.46584131    -0.52580
C890        C  0.41589653  0.74978007  0.43694500     0.73180
Zr891      Zr  0.49125129  0.78120200  0.44892900     2.54710
O892        O  0.49166405  0.82691198  0.45473733    -0.80030
O893        O  0.49014658  0.78233521  0.37347616    -0.93440
Zr894      Zr  0.49130070  0.78132642  0.07217932     2.64680
O895        O  0.49224329  0.82729907  0.06616606    -0.98400
O896        O  0.49106288  0.78331909  0.14755819    -0.80460
O897        O  0.01955140  0.79599408  0.01054182    -0.83820
O898        O  0.46322182  0.76805064  0.01056388    -2.18530
O899        O  0.44182058  0.67083338  0.42756525    -0.67210
O900        O  0.40817397  0.67485134  0.46646533    -0.51770
C901        C  0.41552214  0.66277898  0.43819927     0.71560
O902        O  0.03955906  0.71933450  0.09443220    -0.60120
O903        O  0.07358092  0.75690859  0.05568244    -0.52090
C904        C  0.06593621  0.73749625  0.08411863     0.73370
O905        O  0.44184044  0.67072714  0.09367231    -0.71510
O906        O  0.40817043  0.67488016  0.05501026    -0.50190
C907        C  0.41553675  0.66272845  0.08314328     0.74750
O908        O  0.03954269  0.71944813  0.42670782    -0.66840
O909        O  0.07357969  0.75687399  0.46564546    -0.54040
C910        C  0.06592471  0.73753972  0.43709931     0.73130
Zr911      Zr  0.49085908  0.70680095  0.44911921     2.77540
O912        O  0.49140591  0.66144858  0.45141940    -0.97590
O913        O  0.49046725  0.70754984  0.37368592    -0.78410
Zr914      Zr  0.49086191  0.70693717  0.07245726     2.70070
O915        O  0.49070291  0.66123420  0.07134013    -0.79660
O916        O  0.49112129  0.70896626  0.14787653    -0.98740
Zr917      Zr  0.04696679  0.77182645  0.01061203     2.21500
Zr918      Zr  0.43546897  0.71648265  0.01070692     2.11130
O919        O  0.46293125  0.69235180  0.01078830    -2.47430
O920        O  0.01903815  0.72024508  0.01078068    -0.79450
O921        O  0.46273952  0.72994668  0.44803277    -0.71650
O922        O  0.01926364  0.75807727  0.07305331    -2.32600
O923        O  0.01923372  0.75796485  0.44815490    -2.28810
O924        O  0.46272311  0.73006330  0.07343116    -0.73410
H925        H  0.45074899  0.77636974  0.01049571     0.78590
H926        H  0.03167238  0.76414427  0.09717960     0.79680
H927        H  0.45039527  0.67157176  0.01084923     0.81900
H928        H  0.03161824  0.76401718  0.42400842     0.79510
H929        H  0.99989730  0.77171783  0.15658248     0.42550
H930        H  0.47468459  0.71190080  0.15503752     0.41520
H931        H  0.00039508  0.66165116  0.04494975     0.41200
H932        H  0.47377259  0.64799579  0.46719749     0.39130
H933        H  0.48055533  0.71850659  0.36663564     0.42260
H934        H  0.00610530  0.77916916  0.36436381     0.37040
H935        H  0.00812097  0.83884553  0.47351037     0.43160
H936        H  0.47303813  0.82223255  0.05460928     0.39580
H937        H  0.48717347  0.65411608  0.42258928     0.44500
H938        H  0.49686925  0.80281502  0.36646952     0.43220
H939        H  0.49163411  0.83304715  0.09516714     0.43350
H940        H  0.48477783  0.68891209  0.15687374     0.43710
O941        O  0.26374602  0.94752760  0.42739237    -0.75160
O942        O  0.22577634  0.91352688  0.46559355    -0.54070
C943        C  0.24552203  0.92114467  0.43752800     0.78570
O944        O  0.31068775  0.54540328  0.09578638    -0.59760
O945        O  0.30795252  0.57914824  0.05546450    -0.52790
C946        C  0.31919627  0.57170029  0.08478831     0.70580
O947        O  0.26366275  0.94752233  0.09410617    -0.74320
O948        O  0.22583516  0.91355075  0.05563729    -0.54880
C949        C  0.24550255  0.92114757  0.08383066     0.76590
O950        O  0.31073511  0.54544921  0.42566278    -0.59460
O951        O  0.30788822  0.57918111  0.46585882    -0.52580
C952        C  0.31918039  0.57174458  0.43659717     0.73180
Zr953      Zr  0.27609162  0.99634397  0.44890856     2.54710
O954        O  0.32243344  0.99780354  0.45397376    -0.80030
O955        O  0.27719500  0.49629232  0.37341526    -0.93440
Zr956      Zr  0.27615172  0.99630998  0.07232317     2.64680
O957        O  0.32227116  0.99723661  0.06760915    -0.98400
O958        O  0.27710283  0.49558747  0.14775510    -0.80460
O959        O  0.26258657  0.96825621  0.01060222    -0.83820
O960        O  0.29087831  0.52429249  0.01061552    -2.18530
O961        O  0.21524918  0.54540910  0.42684883    -0.67210
O962        O  0.25250739  0.57893332  0.46645680    -0.51770
C963        C  0.23338351  0.57163527  0.43773810     0.71560
O964        O  0.16373477  0.94816455  0.09112046    -0.60120
O965        O  0.16857821  0.91410105  0.05471530    -0.52090
C966        C  0.15573500  0.92182172  0.08140085     0.73370
O967        O  0.21511611  0.54539256  0.09434818    -0.71510
O968        O  0.25253080  0.57893192  0.05498407    -0.50190
C969        C  0.23331469  0.57162346  0.08356002     0.74750
O970        O  0.16386118  0.94812796  0.42995777    -0.66840
O971        O  0.16855721  0.91406352  0.46660084    -0.54040
C972        C  0.15579465  0.92178459  0.43977300     0.73130
Zr973      Zr  0.20186159  0.99652452  0.44906938     2.77540
O974        O  0.15651409  0.99731413  0.44940199    -0.97590
O975        O  0.20328142  0.99505291  0.37372575    -0.78410
Zr976      Zr  0.20198002  0.99653274  0.07240515     2.70070
O977        O  0.15707889  0.99811591  0.07286475    -0.79660
O978        O  0.20380510  0.99453385  0.14768367    -0.98740
Zr979      Zr  0.21093634  0.94048187  0.01062840     2.21500
Zr980      Zr  0.26669533  0.55168023  0.01070639     2.11130
O981        O  0.21506116  0.52435879  0.01074112    -2.47430
O982        O  0.18748385  0.96855351  0.01073405    -0.79450
O983        O  0.25315266  0.52464027  0.44795930    -0.71650
O984        O  0.22475013  0.96806475  0.07321334    -2.32600
O985        O  0.22468182  0.96808669  0.44803686    -2.28810
O986        O  0.25326733  0.52466875  0.07350272    -0.73410
H987        H  0.31169304  0.53689781  0.01054109     0.78590
H988        H  0.21833331  0.95555088  0.09721425     0.79680
H989        H  0.20678090  0.53685510  0.01079860     0.81900
H990        H  0.21827407  0.95559543  0.42401292     0.79510
H991        H  0.25641499  0.98490570  0.15604894     0.42550
H992        H  0.22299416  0.51112367  0.15528110     0.41520
H993        H  0.14879681  0.99141418  0.04486241     0.41200
H994        H  0.16074787  0.51476907  0.46558986     0.39130
H995        H  0.22418464  0.50642739  0.36674279     0.42260
H996        H  0.25819233  0.97974097  0.36505024     0.37040
H997        H  0.31941787  0.98356373  0.47589129     0.43160
H998        H  0.33589329  0.51628248  0.05518875     0.39580
H999        H  0.15424559  0.00214505  0.42051541     0.44500
H1000       H  0.29145899  0.99021861  0.36630510     0.43220
H1001       H  0.32880689  0.99883973  0.09671985     0.43350
H1002       H  0.18965653  0.00011514  0.15747246     0.43710
C1003       C  0.24986177  0.61348243  0.23888615    -0.01710
C1004       C  0.22758786  0.61481115  0.21698006     0.07970
C1005       C  0.20530366  0.61610844  0.23883680    -0.01830
C1006       C  0.20532402  0.61612731  0.28245142    -0.01830
C1007       C  0.22762327  0.61483726  0.30429578     0.08100
C1008       C  0.24988006  0.61349648  0.28237435    -0.02030
Br1009     Br  0.28149267  0.61320885  0.31164461    -0.00570
Br1010     Br  0.28144272  0.61316373  0.20959204    -0.00650
Br1011     Br  0.17437236  0.61720266  0.31216835    -0.00610
Br1012     Br  0.17431118  0.61712890  0.20913062    -0.00590
C1013       C  0.35107017  0.73544529  0.28240799    -0.01710
C1014       C  0.37339750  0.75898817  0.30428233     0.07970
C1015       C  0.39585128  0.78241371  0.28246758    -0.01830
C1016       C  0.39585426  0.78242138  0.23887274    -0.01830
C1017       C  0.37341064  0.75899726  0.21703720     0.08100
C1018       C  0.35107910  0.73544754  0.23889257    -0.02030
Br1019     Br  0.32105705  0.70243800  0.20935583    -0.00570
Br1020     Br  0.32102902  0.70243969  0.31192248    -0.00650
Br1021     Br  0.42624446  0.81485631  0.20909296    -0.00610
Br1022     Br  0.42625348  0.81482472  0.31227559    -0.00590
C1023       C  0.36891588  0.58953311  0.23889821    -0.01710
C1024       C  0.37247746  0.61401117  0.21692291     0.07970
C1025       C  0.37620635  0.63858810  0.23888393    -0.01830
C1026       C  0.37616416  0.63858956  0.28240941    -0.01830
C1027       C  0.37240685  0.61402041  0.30443031     0.08100
C1028       C  0.36887601  0.58953527  0.28251472    -0.02030
Br1029     Br  0.36480438  0.55614628  0.31202468    -0.00570
Br1030     Br  0.36492872  0.55615619  0.20946605    -0.00650
Br1031     Br  0.37960610  0.67197652  0.31141782    -0.00610
Br1032     Br  0.37974150  0.67198994  0.20978975    -0.00590
C1033       C  0.12875862  0.75133976  0.28242028    -0.01710
C1034       C  0.10803372  0.72682513  0.30444841     0.07970
C1035       C  0.08730217  0.70220953  0.28250856    -0.01830
C1036       C  0.08731427  0.70222113  0.23873545    -0.01830
C1037       C  0.10805598  0.72685026  0.21683120     0.08100
C1038       C  0.12876829  0.75135346  0.23889836    -0.02030
Br1039     Br  0.15665797  0.78552222  0.20944621    -0.00570
Br1040     Br  0.15664271  0.78548371  0.31193077    -0.00650
Br1041     Br  0.05953022  0.66830031  0.20872988    -0.00610
Br1042     Br  0.05949672  0.66827781  0.31246883    -0.00530
C1043       C  0.08013923  0.87411454  0.28250933    -0.01710
C1044       C  0.10616354  0.88299671  0.30485650     0.07970
C1045       C  0.13257390  0.89409348  0.28244756    -0.01830
C1046       C  0.13257749  0.89411304  0.23875421    -0.01830
C1047       C  0.10617078  0.88302140  0.21633457     0.08100
C1048       C  0.08014057  0.87411634  0.23866276    -0.02030
Br1049     Br  0.04450165  0.86365558  0.20944213    -0.00570
Br1050     Br  0.04451145  0.86370443  0.31169570    -0.00650
Br1051     Br  0.16953398  0.90890121  0.21070735    -0.00610
Br1052     Br  0.16952975  0.90883864  0.31049571    -0.00590
C1053       C  0.28110775  0.88465040  0.28254179    -0.01710
C1054       C  0.25587493  0.87902126  0.30445886     0.07970
C1055       C  0.23042252  0.87228937  0.28241338    -0.01830
C1056       C  0.23041439  0.87226659  0.23885822    -0.01830
C1057       C  0.25585191  0.87894583  0.21682189     0.08100
C1058       C  0.28109311  0.88460189  0.23875375    -0.02030
Br1059     Br  0.31553877  0.89228630  0.20875350    -0.00570
Br1060     Br  0.31558220  0.89243077  0.31256633    -0.00650
Br1061     Br  0.19504981  0.86138337  0.20911791    -0.00610
Br1062     Br  0.19505612  0.86136863  0.31214865    -0.00590
C1063       C  0.25522466  0.87882191  0.67080421     0.03260
C1064       C  0.25302216  0.90051350  0.64917955    -0.12890
C1065       C  0.24764021  0.89808484  0.60626296     0.00760
C1066       C  0.24483181  0.87381216  0.58497539    -0.11410
C1067       C  0.24858476  0.85279579  0.60594985     0.03260
C1068       C  0.25365314  0.85539345  0.64888303    -0.10830
H1069       H  0.25433175  0.91868207  0.66612797     0.08850
H1070       H  0.24091486  0.87188658  0.55184682     0.06380
H1071       H  0.25534300  0.83864329  0.66554601     0.06230
C1072       C  0.25524647  0.87888575  0.85047520     0.03260
C1073       C  0.25306000  0.90057173  0.87213842    -0.12890
C1074       C  0.24766598  0.89810216  0.91505485     0.00760
C1075       C  0.24482919  0.87379793  0.93629239    -0.11410
C1076       C  0.24856341  0.85278634  0.91527396     0.03260
C1077       C  0.25364086  0.85542540  0.87235061    -0.10830
H1078       H  0.25439139  0.91876573  0.85522526     0.08850
H1079       H  0.24090443  0.87184413  0.96941721     0.06380
H1080       H  0.25531241  0.83868108  0.85565166     0.06230
C1081       C  0.10588154  0.87997596  0.85120939     0.03260
C1082       C  0.12551841  0.90326374  0.87599562    -0.12890
C1083       C  0.13063316  0.89880112  0.91732077     0.00760
C1084       C  0.11232729  0.87205148  0.93617799    -0.11410
C1085       C  0.08944888  0.84987833  0.91372539     0.03260
C1086       C  0.08737363  0.85330280  0.87079065    -0.10830
H1087       H  0.13855048  0.92443782  0.86209259     0.08850
H1088       H  0.11496038  0.86905637  0.96880185     0.06380
H1089       H  0.07138492  0.83515335  0.85278301     0.06230
C1090       C  0.10589124  0.88000116  0.66998908     0.03260
C1091       C  0.12548924  0.90329790  0.64518340    -0.12890
C1092       C  0.13057889  0.89883673  0.60384905     0.00760
C1093       C  0.11229278  0.87207154  0.58501789    -0.11410
C1094       C  0.08945780  0.84988026  0.60750777     0.03260
C1095       C  0.08741643  0.85331048  0.65044030    -0.10830
H1096       H  0.13851627  0.92447739  0.65907541     0.08850
H1097       H  0.11490916  0.86907629  0.55239149     0.06380
H1098       H  0.07146862  0.83515359  0.66847469     0.06230
C1099       C  0.10814893  0.72772236  0.67084482     0.03260
C1100       C  0.08645689  0.73003182  0.64944673    -0.12890
C1101       C  0.08903837  0.73570542  0.60663729     0.00760
C1102       C  0.11371149  0.73949218  0.58541600    -0.11410
C1103       C  0.13489323  0.73599619  0.60617156     0.03260
C1104       C  0.13173851  0.72962631  0.64873719    -0.10830
H1105       H  0.06814287  0.72847599  0.66639421     0.08850
H1106       H  0.11586075  0.74401503  0.55244082     0.06380
H1107       H  0.14843542  0.72768234  0.66522410     0.06230
C1108       C  0.10810069  0.72767575  0.85043317     0.03260
C1109       C  0.08643741  0.73005075  0.87178817    -0.12890
C1110       C  0.08901568  0.73572813  0.91459517     0.00760
C1111       C  0.11365869  0.73945172  0.93585672    -0.11410
C1112       C  0.13480669  0.73588885  0.91514470     0.03260
C1113       C  0.13165402  0.72951597  0.87258024    -0.10830
H1114       H  0.06815028  0.72853995  0.85480959     0.08850
H1115       H  0.11581096  0.74397918  0.96883004     0.06380
H1116       H  0.14833421  0.72753273  0.85612262     0.06230
C1117       C  0.37132890  0.61384172  0.85032812     0.03260
C1118       C  0.39472870  0.63518350  0.87308459    -0.12890
C1119       C  0.39205845  0.63815670  0.91574778     0.00760
C1120       C  0.36660829  0.61802696  0.93632830    -0.11410
C1121       C  0.34416064  0.59492355  0.91440706     0.03260
C1122       C  0.34622620  0.59348718  0.87127616    -0.10830
H1123       H  0.41433703  0.65063848  0.85701223     0.08850
H1124       H  0.36478391  0.61967447  0.96955776     0.06380
H1125       H  0.32815144  0.57671918  0.85395924     0.06230
C1126       C  0.37140488  0.61379445  0.67102391     0.03260
C1127       C  0.39479792  0.63512180  0.64824851    -0.12890
C1128       C  0.39209859  0.63809023  0.60558807     0.00760
C1129       C  0.36663653  0.61796478  0.58502628    -0.11410
C1130       C  0.34419861  0.59486668  0.60696432     0.03260
C1131       C  0.34629037  0.59343568  0.65009340    -0.10830
H1132       H  0.41441619  0.65058276  0.66430544     0.08850
H1133       H  0.36479276  0.61961759  0.55180018     0.06380
H1134       H  0.32822054  0.57667903  0.66742614     0.06230
C1135       C  0.37343799  0.75859231  0.67127588     0.03260
C1136       C  0.35127655  0.75957646  0.64918389    -0.12890
C1137       C  0.34888397  0.75523221  0.60621085     0.00760
C1138       C  0.36954403  0.75091318  0.58515427    -0.11410
C1139       C  0.39289570  0.75180968  0.60675623     0.03260
C1140       C  0.39452600  0.75531731  0.64989659    -0.10830
H1141       H  0.33507285  0.76224871  0.66582163     0.08850
H1142       H  0.36800607  0.74785819  0.55184056     0.06380
H1143       H  0.41182578  0.75484761  0.66699530     0.06230
C1144       C  0.37341221  0.75857205  0.85004269     0.03260
C1145       C  0.35126071  0.75957750  0.87211422    -0.12890
C1146       C  0.34886212  0.75522967  0.91508690     0.00760
C1147       C  0.36950293  0.75088335  0.93616393    -0.11410
C1148       C  0.39283984  0.75175383  0.91458181     0.03260
C1149       C  0.39447910  0.75526629  0.87144167    -0.10830
H1150       H  0.33506974  0.76226828  0.85546158     0.08850
H1151       H  0.36796390  0.74782910  0.96947825     0.06380
H1152       H  0.41177511  0.75478537  0.85435977     0.06230
C1153       C  0.22842123  0.61572950  0.85008405     0.03260
C1154       C  0.23290266  0.64061879  0.87112713    -0.12890
C1155       C  0.23699461  0.64283536  0.91417562     0.00760
C1156       C  0.23776266  0.62046472  0.93593841    -0.11410
C1157       C  0.23241275  0.59509836  0.91524513     0.03260
C1158       C  0.22691749  0.59253742  0.87254420    -0.10830
H1159       H  0.23366601  0.65844453  0.85389832     0.08850
H1160       H  0.24130496  0.62227174  0.96915914     0.06380
H1161       H  0.22318984  0.57318508  0.85625503     0.06230
C1162       C  0.22836146  0.61570335  0.67119294     0.03260
C1163       C  0.22683458  0.59250801  0.64872755    -0.12890
C1164       C  0.23232273  0.59507659  0.60602893     0.00760
C1165       C  0.23768338  0.62045050  0.58533916    -0.11410
C1166       C  0.23693438  0.64282713  0.60710816     0.03260
C1167       C  0.23285349  0.64060216  0.65015769    -0.10830
H1168       H  0.22310548  0.57314990  0.66501092     0.08850
H1169       H  0.24122575  0.62226028  0.55212017     0.06380
H1170       H  0.23363864  0.65843044  0.66739759     0.06230
O1171       O  0.26603057  0.82057666  0.59348780    -0.75160
O1172       O  0.22776420  0.81583373  0.55519261    -0.54070
C1173       C  0.24736362  0.82817225  0.58330785     0.78570
O1174       O  0.31568359  0.77188582  0.92658789    -0.59760
O1175       O  0.31266656  0.73505502  0.96637868    -0.52790
C1176       C  0.32420882  0.75407027  0.93752852     0.70580
O1177       O  0.26593458  0.82047541  0.92756515    -0.74320
O1178       O  0.22782246  0.81586869  0.96610146    -0.54880
C1179       C  0.24734018  0.82814065  0.93787077     0.76590
O1180       O  0.31572872  0.77191224  0.59464651    -0.59460
O1181       O  0.31263972  0.73501246  0.55495334    -0.52580
C1182       C  0.32422131  0.75406311  0.58375627     0.73180
Zr1183     Zr  0.27970387  0.78495141  0.57234176     2.54710
O1184       O  0.32523026  0.83075494  0.56841548    -0.80030
O1185       O  0.28009624  0.78524787  0.64784454    -0.93440
Zr1186     Zr  0.27974537  0.78501703  0.94900951     2.64680
O1187       O  0.32499328  0.83112793  0.95282415    -0.98400
O1188       O  0.28011724  0.78571033  0.87355254    -0.80460
O1189       O  0.26563200  0.79900509  0.51067528    -0.83820
O1190       O  0.29466818  0.77197927  0.51068352    -2.18530
O1191       O  0.22068047  0.67583876  0.59572169    -0.67210
O1192       O  0.25756114  0.67917862  0.55560564    -0.51770
C1193       C  0.23873577  0.66769208  0.58481750     0.71560
O1194       O  0.16872280  0.72080161  0.92757701    -0.60120
O1195       O  0.17189834  0.75837241  0.96568338    -0.52090
C1196       C  0.16008914  0.73857336  0.93771063     0.73370
O1197       O  0.22066843  0.67577317  0.92564186    -0.71510
O1198       O  0.25766536  0.67922580  0.96560964    -0.50190
C1199       C  0.23878505  0.66768633  0.93647170     0.74750
O1200       O  0.16889230  0.72099897  0.59387450    -0.66840
O1201       O  0.17188569  0.75838333  0.55549447    -0.54040
C1202       C  0.16017708  0.73868717  0.58361915     0.73130
Zr1203     Zr  0.20597308  0.70993538  0.57217971     2.77540
O1204       O  0.16101851  0.66352407  0.56862199    -0.97590
O1205       O  0.20530716  0.71019451  0.64761557    -0.78410
Zr1206     Zr  0.20605250  0.70999648  0.94891863     2.70070
O1207       O  0.16158093  0.66320478  0.95234368    -0.79660
O1208       O  0.20532301  0.71099528  0.87346465    -0.98740
Zr1209     Zr  0.21388084  0.77427991  0.51062837     2.21500
Zr1210     Zr  0.27111073  0.72038500  0.51061855     2.11130
O1211       O  0.21948858  0.69550224  0.51055257    -2.47430
O1212       O  0.19081503  0.72283914  0.51054073    -0.79450
O1213       O  0.25732229  0.73374170  0.57330546    -0.71650
O1214       O  0.22831870  0.76113045  0.94811562    -2.32600
O1215       O  0.22826858  0.76108159  0.57318095    -2.28810
O1216       O  0.25740231  0.73379910  0.94786488    -0.73410
H1217       H  0.31551859  0.78050535  0.51074706     0.78590
H1218       H  0.22182892  0.76711043  0.92407283     0.79680
H1219       H  0.21152706  0.67476717  0.51047810     0.81900
H1220       H  0.22178990  0.76706035  0.59722978     0.79510
H1221       H  0.25938284  0.77460253  0.86556199     0.42550
H1222       H  0.22492960  0.71518255  0.86498050     0.41520
H1223       H  0.15088453  0.66488406  0.97628972     0.41200
H1224       H  0.16637967  0.65027224  0.55487038     0.39130
H1225       H  0.22598624  0.72198099  0.65564210     0.42260
H1226       H  0.26069383  0.78185935  0.65592979     0.37040
H1227       H  0.32224382  0.84146751  0.54568450     0.43160
H1228       H  0.33869467  0.82671254  0.96738907     0.39580
H1229       H  0.15698814  0.65672779  0.59771576     0.44500
H1230       H  0.29362399  0.80568777  0.65544763     0.43220
H1231       H  0.33213253  0.83516830  0.92388631     0.43350
H1232       H  0.19228262  0.69058337  0.86521611     0.43710
O1233       O  0.04014617  0.81621142  0.92548648    -0.75160
O1234       O  0.07413512  0.81300288  0.96478702    -0.54070
C1235       C  0.06653603  0.82446765  0.93579897     0.78570
O1236       O  0.44234793  0.76762572  0.59521598    -0.59760
O1237       O  0.40832226  0.73082009  0.55545928    -0.52790
C1238       C  0.41595225  0.74983187  0.58440676     0.70580
O1239       O  0.04014772  0.81613669  0.59592729    -0.74320
O1240       O  0.07410414  0.81305837  0.55636912    -0.54880
C1241       C  0.06652913  0.82445802  0.58547377     0.76590
O1242       O  0.44228575  0.76762321  0.92618435    -0.59460
O1243       O  0.40827997  0.73072921  0.96584131    -0.52580
C1244       C  0.41589653  0.74978007  0.93694500     0.73180
Zr1245     Zr  0.49125129  0.78120199  0.94892900     2.54710
O1246       O  0.49166405  0.82691198  0.95473732    -0.80030
O1247       O  0.49014658  0.78233520  0.87347615    -0.93440
Zr1248     Zr  0.49130070  0.78132642  0.57217932     2.64680
O1249       O  0.49224329  0.82729907  0.56616605    -0.98400
O1250       O  0.49106288  0.78331910  0.64755819    -0.80460
O1251       O  0.01955140  0.79599408  0.51054182    -0.83820
O1252       O  0.46322182  0.76805065  0.51056388    -2.18530
O1253       O  0.44182058  0.67083338  0.92756524    -0.67210
O1254       O  0.40817397  0.67485133  0.96646533    -0.51770
C1255       C  0.41552214  0.66277897  0.93819926     0.71560
O1256       O  0.03955906  0.71933450  0.59443220    -0.60120
O1257       O  0.07358091  0.75690860  0.55568244    -0.52090
C1258       C  0.06593621  0.73749625  0.58411863     0.73370
O1259       O  0.44184043  0.67072715  0.59367231    -0.71510
O1260       O  0.40817042  0.67488017  0.55501026    -0.50190
C1261       C  0.41553675  0.66272845  0.58314328     0.74750
O1262       O  0.03954270  0.71944812  0.92670782    -0.66840
O1263       O  0.07357969  0.75687399  0.96564546    -0.54040
C1264       C  0.06592471  0.73753972  0.93709931     0.73130
Zr1265     Zr  0.49085908  0.70680094  0.94911921     2.77540
O1266       O  0.49140591  0.66144857  0.95141942    -0.97590
O1267       O  0.49046726  0.70754982  0.87368593    -0.78410
Zr1268     Zr  0.49086191  0.70693718  0.57245726     2.70070
O1269       O  0.49070291  0.66123420  0.57134013    -0.79660
O1270       O  0.49112129  0.70896627  0.64787653    -0.98740
Zr1271     Zr  0.04696679  0.77182645  0.51061203     2.21500
Zr1272     Zr  0.43546897  0.71648266  0.51070692     2.11130
O1273       O  0.46293125  0.69235180  0.51078829    -2.47430
O1274       O  0.01903815  0.72024509  0.51078068    -0.79450
O1275       O  0.46273952  0.72994667  0.94803277    -0.71650
O1276       O  0.01926364  0.75807727  0.57305330    -2.32600
O1277       O  0.01923372  0.75796484  0.94815491    -2.28810
O1278       O  0.46272311  0.73006330  0.57343116    -0.73410
H1279       H  0.45074899  0.77636974  0.51049571     0.78590
H1280       H  0.03167238  0.76414427  0.59717960     0.79680
H1281       H  0.45039527  0.67157176  0.51084922     0.81900
H1282       H  0.03161824  0.76401718  0.92400842     0.79510
H1283       H  0.99989729  0.77171784  0.65658248     0.42550
H1284       H  0.47468459  0.71190080  0.65503751     0.41520
H1285       H  0.00039504  0.66165114  0.54494973     0.41200
H1286       H  0.47377259  0.64799579  0.96719751     0.39130
H1287       H  0.48055534  0.71850658  0.86663563     0.42260
H1288       H  0.00610530  0.77916915  0.86436381     0.37040
H1289       H  0.00812096  0.83884552  0.97351038     0.43160
H1290       H  0.47303813  0.82223255  0.55460929     0.39580
H1291       H  0.48717347  0.65411607  0.92258931     0.44500
H1292       H  0.49686924  0.80281500  0.86646951     0.43220
H1293       H  0.49163412  0.83304717  0.59516713     0.43350
H1294       H  0.48477783  0.68891210  0.65687374     0.43710
O1295       O  0.26374602  0.94752760  0.92739236    -0.75160
O1296       O  0.22577634  0.91352688  0.96559355    -0.54070
C1297       C  0.24552202  0.92114466  0.93752800     0.78570
O1298       O  0.31068775  0.54540328  0.59578637    -0.59760
O1299       O  0.30795252  0.57914825  0.55546449    -0.52790
C1300       C  0.31919627  0.57170029  0.58478831     0.70580
O1301       O  0.26366275  0.94752233  0.59410617    -0.74320
O1302       O  0.22583517  0.91355076  0.55563729    -0.54880
C1303       C  0.24550255  0.92114757  0.58383066     0.76590
O1304       O  0.31073511  0.54544921  0.92566278    -0.59460
O1305       O  0.30788822  0.57918111  0.96585882    -0.52580
C1306       C  0.31918040  0.57174458  0.93659718     0.73180
Zr1307     Zr  0.27609162  0.99634396  0.94890856     2.54710
O1308       O  0.32243344  0.99780354  0.95397375    -0.80030
O1309       O  0.27719501  0.49629232  0.87341527    -0.93440
Zr1310     Zr  0.27615172  0.99630998  0.57232318     2.64680
O1311       O  0.32227115  0.99723661  0.56760917    -0.98400
O1312       O  0.27710283  0.49558747  0.64775510    -0.80460
O1313       O  0.26258657  0.96825621  0.51060222    -0.83820
O1314       O  0.29087831  0.52429249  0.51061551    -2.18530
O1315       O  0.21524919  0.54540910  0.92684883    -0.67210
O1316       O  0.25250740  0.57893332  0.96645680    -0.51770
C1317       C  0.23338351  0.57163527  0.93773810     0.71560
O1318       O  0.16373477  0.94816455  0.59112046    -0.60120
O1319       O  0.16857821  0.91410105  0.55471530    -0.52090
C1320       C  0.15573500  0.92182172  0.58140085     0.73370
O1321       O  0.21511610  0.54539256  0.59434818    -0.71510
O1322       O  0.25253080  0.57893192  0.55498406    -0.50190
C1323       C  0.23331469  0.57162346  0.58356001     0.74750
O1324       O  0.16386118  0.94812796  0.92995778    -0.66840
O1325       O  0.16855721  0.91406351  0.96660085    -0.54040
C1326       C  0.15579465  0.92178459  0.93977300     0.73130
Zr1327     Zr  0.20186159  0.99652452  0.94906938     2.77540
O1328       O  0.15651409  0.99731413  0.94940201    -0.97590
O1329       O  0.20328141  0.99505291  0.87372576    -0.78410
Zr1330     Zr  0.20198002  0.99653274  0.57240514     2.70070
O1331       O  0.15707889  0.99811591  0.57286472    -0.79660
O1332       O  0.20380508  0.99453385  0.64768367    -0.98740
Zr1333     Zr  0.21093634  0.94048187  0.51062840     2.21500
Zr1334     Zr  0.26669533  0.55168023  0.51070639     2.11130
O1335       O  0.21506116  0.52435879  0.51074112    -2.47430
O1336       O  0.18748385  0.96855352  0.51073405    -0.79450
O1337       O  0.25315266  0.52464027  0.94795930    -0.71650
O1338       O  0.22475013  0.96806475  0.57321334    -2.32600
O1339       O  0.22468182  0.96808669  0.94803686    -2.28810
O1340       O  0.25326733  0.52466875  0.57350272    -0.73410
H1341       H  0.31169304  0.53689781  0.51054108     0.78590
H1342       H  0.21833330  0.95555088  0.59721425     0.79680
H1343       H  0.20678089  0.53685510  0.51079860     0.81900
H1344       H  0.21827407  0.95559542  0.92401292     0.79510
H1345       H  0.25641497  0.98490569  0.65604894     0.42550
H1346       H  0.22299415  0.51112367  0.65528110     0.41520
H1347       H  0.14879680  0.99141416  0.54486239     0.41200
H1348       H  0.16074787  0.51476908  0.96558985     0.39130
H1349       H  0.22418465  0.50642737  0.86674280     0.42260
H1350       H  0.25819232  0.97974096  0.86505024     0.37040
H1351       H  0.31941787  0.98356371  0.97589127     0.43160
H1352       H  0.33589329  0.51628248  0.55518874     0.39580
H1353       H  0.15424559  0.00214504  0.92051543     0.44500
H1354       H  0.29145899  0.99021860  0.86630510     0.43220
H1355       H  0.32880689  0.99883975  0.59671987     0.43350
H1356       H  0.18965651  0.00011515  0.65747245     0.43710
C1357       C  0.24986178  0.61348244  0.73888615    -0.01710
C1358       C  0.22758787  0.61481115  0.71698006     0.07970
C1359       C  0.20530366  0.61610844  0.73883680    -0.01830
C1360       C  0.20532403  0.61612731  0.78245142    -0.01830
C1361       C  0.22762328  0.61483726  0.80429578     0.08100
C1362       C  0.24988007  0.61349649  0.78237435    -0.02030
Br1363     Br  0.28149268  0.61320886  0.81164460    -0.00570
Br1364     Br  0.28144272  0.61316374  0.70959203    -0.00650
Br1365     Br  0.17437237  0.61720266  0.81216835    -0.00610
Br1366     Br  0.17431118  0.61712889  0.70913063    -0.00590
C1367       C  0.35107017  0.73544529  0.78240799    -0.01710
C1368       C  0.37339751  0.75898817  0.80428233     0.07970
C1369       C  0.39585128  0.78241371  0.78246758    -0.01830
C1370       C  0.39585426  0.78242138  0.73887274    -0.01830
C1371       C  0.37341064  0.75899726  0.71703720     0.08100
C1372       C  0.35107910  0.73544755  0.73889257    -0.02030
Br1373     Br  0.32105705  0.70243800  0.70935583    -0.00570
Br1374     Br  0.32102902  0.70243969  0.81192248    -0.00650
Br1375     Br  0.42624446  0.81485631  0.70909296    -0.00610
Br1376     Br  0.42625349  0.81482471  0.81227559    -0.00590
C1377       C  0.36891587  0.58953311  0.73889820    -0.01710
C1378       C  0.37247745  0.61401118  0.71692291     0.07970
C1379       C  0.37620634  0.63858811  0.73888392    -0.01830
C1380       C  0.37616415  0.63858956  0.78240940    -0.01830
C1381       C  0.37240684  0.61402041  0.80443031     0.08100
C1382       C  0.36887600  0.58953527  0.78251471    -0.02030
Br1383     Br  0.36480437  0.55614628  0.81202467    -0.00570
Br1384     Br  0.36492871  0.55615619  0.70946605    -0.00650
Br1385     Br  0.37960609  0.67197652  0.81141782    -0.00610
Br1386     Br  0.37974149  0.67198994  0.70978975    -0.00590
C1387       C  0.12875862  0.75133976  0.78242028    -0.01710
C1388       C  0.10803372  0.72682513  0.80444841     0.07970
C1389       C  0.08730216  0.70220953  0.78250856    -0.01830
C1390       C  0.08731427  0.70222113  0.73873545    -0.01830
C1391       C  0.10805598  0.72685026  0.71683120     0.08100
C1392       C  0.12876828  0.75135346  0.73889835    -0.02030
Br1393     Br  0.15665796  0.78552223  0.70944620    -0.00570
Br1394     Br  0.15664271  0.78548371  0.81193076    -0.00650
Br1395     Br  0.05953022  0.66830031  0.70872988    -0.00610
Br1396     Br  0.05949672  0.66827781  0.81246883    -0.00530
C1397       C  0.08013923  0.87411453  0.78250933    -0.01710
C1398       C  0.10616354  0.88299671  0.80485650     0.07970
C1399       C  0.13257390  0.89409348  0.78244756    -0.01830
C1400       C  0.13257749  0.89411304  0.73875421    -0.01830
C1401       C  0.10617078  0.88302140  0.71633457     0.08100
C1402       C  0.08014057  0.87411633  0.73866276    -0.02030
Br1403     Br  0.04450165  0.86365558  0.70944213    -0.00570
Br1404     Br  0.04451145  0.86370443  0.81169570    -0.00650
Br1405     Br  0.16953398  0.90890121  0.71070735    -0.00610
Br1406     Br  0.16952975  0.90883865  0.81049571    -0.00590
C1407       C  0.28110775  0.88465040  0.78254179    -0.01710
C1408       C  0.25587493  0.87902126  0.80445886     0.07970
C1409       C  0.23042252  0.87228937  0.78241338    -0.01830
C1410       C  0.23041439  0.87226660  0.73885822    -0.01830
C1411       C  0.25585191  0.87894583  0.71682189     0.08100
C1412       C  0.28109310  0.88460189  0.73875375    -0.02030
Br1413     Br  0.31553877  0.89228631  0.70875350    -0.00570
Br1414     Br  0.31558220  0.89243076  0.81256633    -0.00650
Br1415     Br  0.19504981  0.86138338  0.70911791    -0.00610
Br1416     Br  0.19505612  0.86136863  0.81214865    -0.00590
C1417       C  0.75522465  0.37882191  0.17080422     0.03260
C1418       C  0.75302215  0.40051349  0.14917956    -0.12890
C1419       C  0.74764020  0.39808484  0.10626297     0.00760
C1420       C  0.74483180  0.37381215  0.08497540    -0.11410
C1421       C  0.74858476  0.35279579  0.10594986     0.03260
C1422       C  0.75365313  0.35539345  0.14888304    -0.10830
H1423       H  0.75433174  0.41868207  0.16612798     0.08850
H1424       H  0.74091485  0.37188658  0.05184683     0.06380
H1425       H  0.75534299  0.33864328  0.16554602     0.06230
C1426       C  0.75524648  0.37888576  0.35047521     0.03260
C1427       C  0.75306000  0.40057174  0.37213842    -0.12890
C1428       C  0.74766599  0.39810217  0.41505486     0.00760
C1429       C  0.74482920  0.37379794  0.43629240    -0.11410
C1430       C  0.74856342  0.35278635  0.41527397     0.03260
C1431       C  0.75364087  0.35542541  0.37235062    -0.10830
H1432       H  0.75439139  0.41876573  0.35522527     0.08850
H1433       H  0.74090443  0.37184414  0.46941722     0.06380
H1434       H  0.75531242  0.33868109  0.35565167     0.06230
C1435       C  0.60588154  0.37997596  0.35120939     0.03260
C1436       C  0.62551842  0.40326374  0.37599562    -0.12890
C1437       C  0.63063316  0.39880112  0.41732076     0.00760
C1438       C  0.61232730  0.37205148  0.43617798    -0.11410
C1439       C  0.58944888  0.34987833  0.41372539     0.03260
C1440       C  0.58737363  0.35330280  0.37079064    -0.10830
H1441       H  0.63855048  0.42443782  0.36209258     0.08850
H1442       H  0.61496039  0.36905637  0.46880185     0.06380
H1443       H  0.57138492  0.33515335  0.35278301     0.06230
C1444       C  0.60589123  0.38000116  0.16998908     0.03260
C1445       C  0.62548924  0.40329790  0.14518340    -0.12890
C1446       C  0.63057888  0.39883673  0.10384905     0.00760
C1447       C  0.61229277  0.37207154  0.08501789    -0.11410
C1448       C  0.58945779  0.34988026  0.10750777     0.03260
C1449       C  0.58741642  0.35331048  0.15044029    -0.10830
H1450       H  0.63851627  0.42447739  0.15907541     0.08850
H1451       H  0.61490915  0.36907629  0.05239149     0.06380
H1452       H  0.57146861  0.33515359  0.16847469     0.06230
C1453       C  0.60814893  0.22772236  0.17084483     0.03260
C1454       C  0.58645689  0.23003183  0.14944673    -0.12890
C1455       C  0.58903838  0.23570542  0.10663730     0.00760
C1456       C  0.61371149  0.23949218  0.08541600    -0.11410
C1457       C  0.63489323  0.23599618  0.10617156     0.03260
C1458       C  0.63173851  0.22962631  0.14873719    -0.10830
H1459       H  0.56814287  0.22847599  0.16639422     0.08850
H1460       H  0.61586075  0.24401503  0.05244082     0.06380
H1461       H  0.64843541  0.22768233  0.16522409     0.06230
C1462       C  0.60810069  0.22767575  0.35043317     0.03260
C1463       C  0.58643741  0.23005076  0.37178817    -0.12890
C1464       C  0.58901568  0.23572814  0.41459517     0.00760
C1465       C  0.61365870  0.23945172  0.43585672    -0.11410
C1466       C  0.63480670  0.23588885  0.41514470     0.03260
C1467       C  0.63165402  0.22951597  0.37258025    -0.10830
H1468       H  0.56815029  0.22853996  0.35480959     0.08850
H1469       H  0.61581096  0.24397919  0.46883005     0.06380
H1470       H  0.64833421  0.22753273  0.35612263     0.06230
C1471       C  0.87132890  0.11384172  0.35032813     0.03260
C1472       C  0.89472870  0.13518350  0.37308459    -0.12890
C1473       C  0.89205846  0.13815670  0.41574778     0.00760
C1474       C  0.86660829  0.11802697  0.43632830    -0.11410
C1475       C  0.84416064  0.09492355  0.41440706     0.03260
C1476       C  0.84622620  0.09348718  0.37127616    -0.10830
H1477       H  0.91433703  0.15063848  0.35701223     0.08850
H1478       H  0.86478391  0.11967447  0.46955776     0.06380
H1479       H  0.82815145  0.07671918  0.35395924     0.06230
C1480       C  0.87140488  0.11379445  0.17102392     0.03260
C1481       C  0.89479792  0.13512179  0.14824851    -0.12890
C1482       C  0.89209859  0.13809023  0.10558807     0.00760
C1483       C  0.86663653  0.11796478  0.08502629    -0.11410
C1484       C  0.84419861  0.09486668  0.10696432     0.03260
C1485       C  0.84629037  0.09343568  0.15009341    -0.10830
H1486       H  0.91441620  0.15058275  0.16430544     0.08850
H1487       H  0.86479276  0.11961759  0.05180018     0.06380
H1488       H  0.82822054  0.07667903  0.16742614     0.06230
C1489       C  0.87343799  0.25859231  0.17127588     0.03260
C1490       C  0.85127655  0.25957646  0.14918389    -0.12890
C1491       C  0.84888397  0.25523221  0.10621085     0.00760
C1492       C  0.86954403  0.25091318  0.08515428    -0.11410
C1493       C  0.89289570  0.25180968  0.10675623     0.03260
C1494       C  0.89452600  0.25531731  0.14989659    -0.10830
H1495       H  0.83507286  0.26224871  0.16582164     0.08850
H1496       H  0.86800607  0.24785819  0.05184056     0.06380
H1497       H  0.91182578  0.25484761  0.16699530     0.06230
C1498       C  0.87341221  0.25857205  0.35004269     0.03260
C1499       C  0.85126071  0.25957750  0.37211422    -0.12890
C1500       C  0.84886212  0.25522967  0.41508690     0.00760
C1501       C  0.86950293  0.25088335  0.43616393    -0.11410
C1502       C  0.89283985  0.25175383  0.41458181     0.03260
C1503       C  0.89447910  0.25526629  0.37144167    -0.10830
H1504       H  0.83506974  0.26226828  0.35546158     0.08850
H1505       H  0.86796390  0.24782910  0.46947825     0.06380
H1506       H  0.91177511  0.25478538  0.35435977     0.06230
C1507       C  0.72842123  0.11572951  0.35008405     0.03260
C1508       C  0.73290266  0.14061879  0.37112713    -0.12890
C1509       C  0.73699460  0.14283536  0.41417562     0.00760
C1510       C  0.73776266  0.12046473  0.43593841    -0.11410
C1511       C  0.73241274  0.09509836  0.41524513     0.03260
C1512       C  0.72691748  0.09253743  0.37254420    -0.10830
H1513       H  0.73366601  0.15844453  0.35389832     0.08850
H1514       H  0.74130496  0.12227174  0.46915914     0.06380
H1515       H  0.72318984  0.07318508  0.35625502     0.06230
C1516       C  0.72836146  0.11570335  0.17119294     0.03260
C1517       C  0.72683459  0.09250801  0.14872755    -0.12890
C1518       C  0.73232273  0.09507660  0.10602893     0.00760
C1519       C  0.73768338  0.12045050  0.08533916    -0.11410
C1520       C  0.73693438  0.14282713  0.10710816     0.03260
C1521       C  0.73285349  0.14060216  0.15015769    -0.10830
H1522       H  0.72310549  0.07314991  0.16501092     0.08850
H1523       H  0.74122576  0.12226028  0.05212017     0.06380
H1524       H  0.73363864  0.15843044  0.16739759     0.06230
O1525       O  0.76603056  0.32057666  0.09348781    -0.75160
O1526       O  0.72776420  0.31583373  0.05519262    -0.54070
C1527       C  0.74736361  0.32817225  0.08330786     0.78570
O1528       O  0.81568359  0.27188583  0.42658789    -0.59760
O1529       O  0.81266656  0.23505503  0.46637868    -0.52790
C1530       C  0.82420882  0.25407028  0.43752852     0.70580
O1531       O  0.76593458  0.32047542  0.42756516    -0.74320
O1532       O  0.72782247  0.31586870  0.46610146    -0.54880
C1533       C  0.74734019  0.32814066  0.43787078     0.76590
O1534       O  0.81572872  0.27191224  0.09464651    -0.59460
O1535       O  0.81263972  0.23501246  0.05495334    -0.52580
C1536       C  0.82422131  0.25406311  0.08375627     0.73180
Zr1537     Zr  0.77970387  0.28495141  0.07234176     2.54710
O1538       O  0.82523025  0.33075494  0.06841549    -0.80030
O1539       O  0.78009624  0.28524787  0.14784454    -0.93440
Zr1540     Zr  0.77974537  0.28501703  0.44900951     2.64680
O1541       O  0.82499329  0.33112793  0.45282414    -0.98400
O1542       O  0.78011724  0.28571033  0.37355254    -0.80460
O1543       O  0.76563200  0.29900509  0.01067528    -0.83820
O1544       O  0.79466819  0.27197927  0.01068353    -2.18530
O1545       O  0.72068047  0.17583876  0.09572169    -0.67210
O1546       O  0.75756115  0.17917862  0.05560564    -0.51770
C1547       C  0.73873578  0.16769208  0.08481750     0.71560
O1548       O  0.66872280  0.22080161  0.42757702    -0.60120
O1549       O  0.67189834  0.25837242  0.46568339    -0.52090
C1550       C  0.66008915  0.23857337  0.43771064     0.73370
O1551       O  0.72066843  0.17577317  0.42564186    -0.71510
O1552       O  0.75766536  0.17922581  0.46560964    -0.50190
C1553       C  0.73878505  0.16768634  0.43647170     0.74750
O1554       O  0.66889230  0.22099896  0.09387450    -0.66840
O1555       O  0.67188569  0.25838333  0.05549447    -0.54040
C1556       C  0.66017708  0.23868717  0.08361915     0.73130
Zr1557     Zr  0.70597308  0.20993537  0.07217971     2.77540
O1558       O  0.66101851  0.16352407  0.06862197    -0.97590
O1559       O  0.70530715  0.21019450  0.14761557    -0.78410
Zr1560     Zr  0.70605251  0.20999648  0.44891864     2.70070
O1561       O  0.66158093  0.16320479  0.45234369    -0.79660
O1562       O  0.70532301  0.21099528  0.37346466    -0.98740
Zr1563     Zr  0.71388085  0.27427991  0.01062837     2.21500
Zr1564     Zr  0.77111073  0.22038500  0.01061855     2.11130
O1565       O  0.71948859  0.19550225  0.01055256    -2.47430
O1566       O  0.69081503  0.22283914  0.01054073    -0.79450
O1567       O  0.75732229  0.23374170  0.07330546    -0.71650
O1568       O  0.72831871  0.26113045  0.44811563    -2.32600
O1569       O  0.72826858  0.26108159  0.07318096    -2.28810
O1570       O  0.75740231  0.23379910  0.44786488    -0.73410
H1571       H  0.81551859  0.28050536  0.01074706     0.78590
H1572       H  0.72182892  0.26711043  0.42407284     0.79680
H1573       H  0.71152706  0.17476717  0.01047810     0.81900
H1574       H  0.72178990  0.26706035  0.09722978     0.79510
H1575       H  0.75938283  0.27460254  0.36556199     0.42550
H1576       H  0.72492959  0.21518255  0.36498050     0.41520
H1577       H  0.65088454  0.16488407  0.47628974     0.41200
H1578       H  0.66637967  0.15027224  0.05487037     0.39130
H1579       H  0.72598623  0.22198100  0.15564210     0.42260
H1580       H  0.76069383  0.28185935  0.15592980     0.37040
H1581       H  0.82224382  0.34146752  0.04568452     0.43160
H1582       H  0.83869467  0.32671254  0.46738906     0.39580
H1583       H  0.65698814  0.15672779  0.09771574     0.44500
H1584       H  0.79362399  0.30568777  0.15544764     0.43220
H1585       H  0.83213254  0.33516830  0.42388630     0.43350
H1586       H  0.69228261  0.19058338  0.36521612     0.43710
O1587       O  0.54014617  0.31621142  0.42548647    -0.75160
O1588       O  0.57413513  0.31300289  0.46478702    -0.54070
C1589       C  0.56653603  0.32446765  0.43579897     0.78570
O1590       O  0.94234794  0.26762572  0.09521598    -0.59760
O1591       O  0.90832226  0.23082008  0.05545928    -0.52790
C1592       C  0.91595225  0.24983187  0.08440676     0.70580
O1593       O  0.54014772  0.31613669  0.09592729    -0.74320
O1594       O  0.57410414  0.31305836  0.05636912    -0.54880
C1595       C  0.56652913  0.32445802  0.08547377     0.76590
O1596       O  0.94228575  0.26762321  0.42618436    -0.59460
O1597       O  0.90827997  0.23072921  0.46584131    -0.52580
C1598       C  0.91589653  0.24978007  0.43694500     0.73180
Zr1599     Zr  0.99125130  0.28120200  0.44892900     2.54710
O1600       O  0.99166405  0.32691198  0.45473733    -0.80030
O1601       O  0.99014658  0.28233521  0.37347616    -0.93440
Zr1602     Zr  0.99130070  0.28132642  0.07217932     2.64680
O1603       O  0.99224329  0.32729907  0.06616606    -0.98400
O1604       O  0.99106288  0.28331909  0.14755819    -0.80460
O1605       O  0.51955140  0.29599408  0.01054182    -0.83820
O1606       O  0.96322182  0.26805065  0.01056389    -2.18530
O1607       O  0.94182058  0.17083338  0.42756525    -0.67210
O1608       O  0.90817397  0.17485134  0.46646533    -0.51770
C1609       C  0.91552215  0.16277898  0.43819927     0.71560
O1610       O  0.53955906  0.21933450  0.09443220    -0.60120
O1611       O  0.57358091  0.25690860  0.05568244    -0.52090
C1612       C  0.56593621  0.23749625  0.08411864     0.73370
O1613       O  0.94184043  0.17072714  0.09367231    -0.71510
O1614       O  0.90817042  0.17488016  0.05501026    -0.50190
C1615       C  0.91553675  0.16272845  0.08314328     0.74750
O1616       O  0.53954270  0.21944813  0.42670782    -0.66840
O1617       O  0.57357969  0.25687400  0.46564546    -0.54040
C1618       C  0.56592471  0.23753973  0.43709931     0.73130
Zr1619     Zr  0.99085908  0.20680094  0.44911921     2.77540
O1620       O  0.99140591  0.16144858  0.45141941    -0.97590
O1621       O  0.99046726  0.20754983  0.37368593    -0.78410
Zr1622     Zr  0.99086191  0.20693717  0.07245726     2.70070
O1623       O  0.99070291  0.16123420  0.07134014    -0.79660
O1624       O  0.99112129  0.20896627  0.14787654    -0.98740
Zr1625     Zr  0.54696678  0.27182645  0.01061203     2.21500
Zr1626     Zr  0.93546897  0.21648265  0.01070692     2.11130
O1627       O  0.96293125  0.19235180  0.01078830    -2.47430
O1628       O  0.51903815  0.22024509  0.01078069    -0.79450
O1629       O  0.96273952  0.22994668  0.44803277    -0.71650
O1630       O  0.51926364  0.25807727  0.07305331    -2.32600
O1631       O  0.51923372  0.25796485  0.44815491    -2.28810
O1632       O  0.96272311  0.23006330  0.07343116    -0.73410
H1633       H  0.95074899  0.27636974  0.01049571     0.78590
H1634       H  0.53167238  0.26414427  0.09717961     0.79680
H1635       H  0.95039527  0.17157176  0.01084923     0.81900
H1636       H  0.53161824  0.26401718  0.42400843     0.79510
H1637       H  0.49989729  0.27171784  0.15658249     0.42550
H1638       H  0.97468459  0.21190080  0.15503752     0.41520
H1639       H  0.50039506  0.16165115  0.04494976     0.41200
H1640       H  0.97377259  0.14799579  0.46719750     0.39130
H1641       H  0.98055534  0.21850659  0.36663564     0.42260
H1642       H  0.50610530  0.27916916  0.36436381     0.37040
H1643       H  0.50812098  0.33884554  0.47351036     0.43160
H1644       H  0.97303813  0.32223255  0.05460928     0.39580
H1645       H  0.98717348  0.15411608  0.42258929     0.44500
H1646       H  0.99686925  0.30281502  0.36646952     0.43220
H1647       H  0.99163411  0.33304715  0.09516714     0.43350
H1648       H  0.98477783  0.18891209  0.15687374     0.43710
O1649       O  0.76374602  0.44752761  0.42739237    -0.75160
O1650       O  0.72577634  0.41352689  0.46559356    -0.54070
C1651       C  0.74552203  0.42114467  0.43752801     0.78570
O1652       O  0.81068775  0.04540328  0.09578637    -0.59760
O1653       O  0.80795252  0.07914824  0.05546450    -0.52790
C1654       C  0.81919627  0.07170029  0.08478831     0.70580
O1655       O  0.76366274  0.44752233  0.09410618    -0.74320
O1656       O  0.72583516  0.41355076  0.05563729    -0.54880
C1657       C  0.74550254  0.42114757  0.08383066     0.76590
O1658       O  0.81073511  0.04544921  0.42566278    -0.59460
O1659       O  0.80788822  0.07918111  0.46585882    -0.52580
C1660       C  0.81918040  0.07174458  0.43659717     0.73180
Zr1661     Zr  0.77609162  0.49634397  0.44890857     2.54710
O1662       O  0.82243344  0.49780355  0.45397376    -0.80030
O1663       O  0.77719500  0.99629232  0.37341526    -0.93440
Zr1664     Zr  0.77615172  0.49630998  0.07232318     2.64680
O1665       O  0.82227115  0.49723661  0.06760917    -0.98400
O1666       O  0.77710284  0.99558747  0.14775509    -0.80460
O1667       O  0.76258657  0.46825621  0.01060222    -0.83820
O1668       O  0.79087831  0.02429249  0.01061551    -2.18530
O1669       O  0.71524918  0.04540910  0.42684883    -0.67210
O1670       O  0.75250739  0.07893332  0.46645680    -0.51770
C1671       C  0.73338351  0.07163527  0.43773810     0.71560
O1672       O  0.66373477  0.44816455  0.09112046    -0.60120
O1673       O  0.66857820  0.41410105  0.05471531    -0.52090
C1674       C  0.65573500  0.42182172  0.08140085     0.73370
O1675       O  0.71511611  0.04539256  0.09434818    -0.71510
O1676       O  0.75253080  0.07893192  0.05498406    -0.50190
C1677       C  0.73331469  0.07162346  0.08356002     0.74750
O1678       O  0.66386118  0.44812795  0.42995777    -0.66840
O1679       O  0.66855721  0.41406352  0.46660085    -0.54040
C1680       C  0.65579465  0.42178459  0.43977300     0.73130
Zr1681     Zr  0.70186159  0.49652452  0.44906938     2.77540
O1682       O  0.65651408  0.49731413  0.44940200    -0.97590
O1683       O  0.70328141  0.49505291  0.37372576    -0.78410
Zr1684     Zr  0.70198002  0.49653274  0.07240515     2.70070
O1685       O  0.65707889  0.49811591  0.07286473    -0.79660
O1686       O  0.70380508  0.49453385  0.14768367    -0.98740
Zr1687     Zr  0.71093633  0.44048187  0.01062841     2.21500
Zr1688     Zr  0.76669533  0.05168023  0.01070639     2.11130
O1689       O  0.71506116  0.02435879  0.01074113    -2.47430
O1690       O  0.68748385  0.46855351  0.01073405    -0.79450
O1691       O  0.75315266  0.02464028  0.44795930    -0.71650
O1692       O  0.72475012  0.46806475  0.07321335    -2.32600
O1693       O  0.72468182  0.46808669  0.44803686    -2.28810
O1694       O  0.75326733  0.02466875  0.07350272    -0.73410
H1695       H  0.81169304  0.03689781  0.01054108     0.78590
H1696       H  0.71833330  0.45555088  0.09721425     0.79680
H1697       H  0.70678089  0.03685510  0.01079860     0.81900
H1698       H  0.71827407  0.45559543  0.42401293     0.79510
H1699       H  0.75641498  0.48490569  0.15604894     0.42550
H1700       H  0.72299416  0.01112367  0.15528110     0.41520
H1701       H  0.64879680  0.49141416  0.04486241     0.41200
H1702       H  0.66074787  0.01476908  0.46558985     0.39130
H1703       H  0.72418464  0.00642738  0.36674279     0.42260
H1704       H  0.75819232  0.47974097  0.36505025     0.37040
H1705       H  0.81941788  0.48356374  0.47589130     0.43160
H1706       H  0.83589329  0.01628249  0.05518875     0.39580
H1707       H  0.65424559  0.50214504  0.42051542     0.44500
H1708       H  0.79145899  0.49021861  0.36630511     0.43220
H1709       H  0.82880689  0.49883975  0.09671987     0.43350
H1710       H  0.68965652  0.50011514  0.15747245     0.43710
C1711       C  0.74986178  0.11348244  0.23888615    -0.01710
C1712       C  0.72758787  0.11481115  0.21698006     0.07970
C1713       C  0.70530366  0.11610844  0.23883680    -0.01830
C1714       C  0.70532403  0.11612731  0.28245142    -0.01830
C1715       C  0.72762328  0.11483727  0.30429578     0.08100
C1716       C  0.74988007  0.11349650  0.28237435    -0.02030
Br1717     Br  0.78149268  0.11320887  0.31164461    -0.00570
Br1718     Br  0.78144273  0.11316374  0.20959203    -0.00650
Br1719     Br  0.67437237  0.11720266  0.31216835    -0.00610
Br1720     Br  0.67431118  0.11712890  0.20913062    -0.00590
C1721       C  0.85107018  0.23544529  0.28240799    -0.01710
C1722       C  0.87339751  0.25898818  0.30428233     0.07970
C1723       C  0.89585128  0.28241372  0.28246758    -0.01830
C1724       C  0.89585426  0.28242138  0.23887274    -0.01830
C1725       C  0.87341064  0.25899726  0.21703721     0.08100
C1726       C  0.85107910  0.23544755  0.23889257    -0.02030
Br1727     Br  0.82105706  0.20243800  0.20935584    -0.00570
Br1728     Br  0.82102903  0.20243970  0.31192249    -0.00650
Br1729     Br  0.92624446  0.31485631  0.20909296    -0.00610
Br1730     Br  0.92625349  0.31482472  0.31227559    -0.00590
C1731       C  0.86891587  0.08953311  0.23889821    -0.01710
C1732       C  0.87247746  0.11401117  0.21692291     0.07970
C1733       C  0.87620635  0.13858811  0.23888393    -0.01830
C1734       C  0.87616416  0.13858956  0.28240941    -0.01830
C1735       C  0.87240684  0.11402041  0.30443031     0.08100
C1736       C  0.86887600  0.08953527  0.28251472    -0.02030
Br1737     Br  0.86480438  0.05614628  0.31202468    -0.00570
Br1738     Br  0.86492871  0.05615619  0.20946605    -0.00650
Br1739     Br  0.87960610  0.17197652  0.31141782    -0.00610
Br1740     Br  0.87974150  0.17198994  0.20978975    -0.00590
C1741       C  0.62875864  0.25133976  0.28242028    -0.01710
C1742       C  0.60803373  0.22682513  0.30444841     0.07970
C1743       C  0.58730216  0.20220954  0.28250857    -0.01830
C1744       C  0.58731426  0.20222114  0.23873545    -0.01830
C1745       C  0.60805598  0.22685026  0.21683120     0.08100
C1746       C  0.62876830  0.25135345  0.23889835    -0.02030
Br1747     Br  0.65665800  0.28552221  0.20944620    -0.00570
Br1748     Br  0.65664274  0.28548370  0.31193076    -0.00650
Br1749     Br  0.55953020  0.16830032  0.20872989    -0.00610
Br1750     Br  0.55949670  0.16827783  0.31246883    -0.00530
C1751       C  0.58013923  0.37411454  0.28250933    -0.01710
C1752       C  0.60616354  0.38299671  0.30485650     0.07970
C1753       C  0.63257390  0.39409348  0.28244755    -0.01830
C1754       C  0.63257749  0.39411303  0.23875421    -0.01830
C1755       C  0.60617078  0.38302140  0.21633457     0.08100
C1756       C  0.58014057  0.37411634  0.23866276    -0.02030
Br1757     Br  0.54450165  0.36365559  0.20944213    -0.00570
Br1758     Br  0.54451146  0.36370444  0.31169571    -0.00650
Br1759     Br  0.66953398  0.40890120  0.21070734    -0.00610
Br1760     Br  0.66952975  0.40883864  0.31049570    -0.00590
C1761       C  0.78110775  0.38465041  0.28254180    -0.01710
C1762       C  0.75587493  0.37902126  0.30445887     0.07970
C1763       C  0.73042252  0.37228936  0.28241339    -0.01830
C1764       C  0.73041439  0.37226659  0.23885823    -0.01830
C1765       C  0.75585190  0.37894583  0.21682190     0.08100
C1766       C  0.78109310  0.38460190  0.23875375    -0.02030
Br1767     Br  0.81553877  0.39228632  0.20875349    -0.00570
Br1768     Br  0.81558221  0.39243079  0.31256633    -0.00650
Br1769     Br  0.69504980  0.36138336  0.20911793    -0.00610
Br1770     Br  0.69505612  0.36136863  0.31214867    -0.00590
C1771       C  0.75522467  0.37882192  0.67080422     0.03260
C1772       C  0.75302217  0.40051350  0.64917956    -0.12890
C1773       C  0.74764021  0.39808485  0.60626297     0.00760
C1774       C  0.74483181  0.37381216  0.58497540    -0.11410
C1775       C  0.74858477  0.35279580  0.60594986     0.03260
C1776       C  0.75365315  0.35539346  0.64888303    -0.10830
H1777       H  0.75433176  0.41868208  0.66612798     0.08850
H1778       H  0.74091486  0.37188658  0.55184683     0.06380
H1779       H  0.75534301  0.33864329  0.66554602     0.06230
C1780       C  0.75524647  0.37888576  0.85047520     0.03260
C1781       C  0.75306000  0.40057174  0.87213842    -0.12890
C1782       C  0.74766598  0.39810216  0.91505485     0.00760
C1783       C  0.74482919  0.37379793  0.93629239    -0.11410
C1784       C  0.74856342  0.35278634  0.91527396     0.03260
C1785       C  0.75364086  0.35542540  0.87235062    -0.10830
H1786       H  0.75439139  0.41876573  0.85522526     0.08850
H1787       H  0.74090443  0.37184413  0.96941721     0.06380
H1788       H  0.75531241  0.33868109  0.85565167     0.06230
C1789       C  0.60588154  0.37997596  0.85120940     0.03260
C1790       C  0.62551841  0.40326374  0.87599562    -0.12890
C1791       C  0.63063316  0.39880112  0.91732077     0.00760
C1792       C  0.61232729  0.37205148  0.93617799    -0.11410
C1793       C  0.58944888  0.34987833  0.91372539     0.03260
C1794       C  0.58737363  0.35330281  0.87079065    -0.10830
H1795       H  0.63855047  0.42443782  0.86209259     0.08850
H1796       H  0.61496038  0.36905637  0.96880185     0.06380
H1797       H  0.57138492  0.33515335  0.85278301     0.06230
C1798       C  0.60589124  0.38000116  0.66998909     0.03260
C1799       C  0.62548924  0.40329790  0.64518341    -0.12890
C1800       C  0.63057889  0.39883673  0.60384906     0.00760
C1801       C  0.61229278  0.37207154  0.58501790    -0.11410
C1802       C  0.58945779  0.34988026  0.60750778     0.03260
C1803       C  0.58741643  0.35331048  0.65044030    -0.10830
H1804       H  0.63851627  0.42447739  0.65907541     0.08850
H1805       H  0.61490916  0.36907629  0.55239150     0.06380
H1806       H  0.57146862  0.33515359  0.66847469     0.06230
C1807       C  0.60814893  0.22772236  0.67084483     0.03260
C1808       C  0.58645689  0.23003182  0.64944673    -0.12890
C1809       C  0.58903838  0.23570542  0.60663729     0.00760
C1810       C  0.61371150  0.23949218  0.58541600    -0.11410
C1811       C  0.63489323  0.23599619  0.60617156     0.03260
C1812       C  0.63173851  0.22962631  0.64873719    -0.10830
H1813       H  0.56814287  0.22847599  0.66639421     0.08850
H1814       H  0.61586076  0.24401504  0.55244082     0.06380
H1815       H  0.64843542  0.22768234  0.66522410     0.06230
C1816       C  0.60810069  0.22767575  0.85043317     0.03260
C1817       C  0.58643741  0.23005076  0.87178817    -0.12890
C1818       C  0.58901568  0.23572814  0.91459517     0.00760
C1819       C  0.61365870  0.23945172  0.93585672    -0.11410
C1820       C  0.63480670  0.23588885  0.91514470     0.03260
C1821       C  0.63165402  0.22951597  0.87258024    -0.10830
H1822       H  0.56815028  0.22853995  0.85480959     0.08850
H1823       H  0.61581096  0.24397918  0.96883004     0.06380
H1824       H  0.64833421  0.22753273  0.85612262     0.06230
C1825       C  0.87132890  0.11384172  0.85032812     0.03260
C1826       C  0.89472870  0.13518350  0.87308459    -0.12890
C1827       C  0.89205845  0.13815670  0.91574778     0.00760
C1828       C  0.86660829  0.11802697  0.93632830    -0.11410
C1829       C  0.84416064  0.09492355  0.91440706     0.03260
C1830       C  0.84622620  0.09348718  0.87127616    -0.10830
H1831       H  0.91433703  0.15063848  0.85701223     0.08850
H1832       H  0.86478391  0.11967447  0.96955776     0.06380
H1833       H  0.82815144  0.07671918  0.85395923     0.06230
C1834       C  0.87140488  0.11379445  0.67102391     0.03260
C1835       C  0.89479792  0.13512180  0.64824851    -0.12890
C1836       C  0.89209859  0.13809023  0.60558807     0.00760
C1837       C  0.86663653  0.11796478  0.58502629    -0.11410
C1838       C  0.84419861  0.09486668  0.60696432     0.03260
C1839       C  0.84629037  0.09343568  0.65009341    -0.10830
H1840       H  0.91441620  0.15058275  0.66430544     0.08850
H1841       H  0.86479276  0.11961759  0.55180018     0.06380
H1842       H  0.82822054  0.07667903  0.66742614     0.06230
C1843       C  0.87343799  0.25859231  0.67127588     0.03260
C1844       C  0.85127655  0.25957646  0.64918389    -0.12890
C1845       C  0.84888397  0.25523221  0.60621085     0.00760
C1846       C  0.86954403  0.25091318  0.58515428    -0.11410
C1847       C  0.89289570  0.25180968  0.60675623     0.03260
C1848       C  0.89452600  0.25531731  0.64989659    -0.10830
H1849       H  0.83507286  0.26224871  0.66582163     0.08850
H1850       H  0.86800607  0.24785819  0.55184056     0.06380
H1851       H  0.91182578  0.25484761  0.66699530     0.06230
C1852       C  0.87341221  0.25857205  0.85004269     0.03260
C1853       C  0.85126071  0.25957750  0.87211422    -0.12890
C1854       C  0.84886212  0.25522967  0.91508691     0.00760
C1855       C  0.86950293  0.25088335  0.93616393    -0.11410
C1856       C  0.89283985  0.25175383  0.91458182     0.03260
C1857       C  0.89447910  0.25526629  0.87144167    -0.10830
H1858       H  0.83506974  0.26226828  0.85546158     0.08850
H1859       H  0.86796390  0.24782910  0.96947825     0.06380
H1860       H  0.91177511  0.25478537  0.85435977     0.06230
C1861       C  0.72842123  0.11572951  0.85008405     0.03260
C1862       C  0.73290267  0.14061879  0.87112714    -0.12890
C1863       C  0.73699461  0.14283536  0.91417562     0.00760
C1864       C  0.73776266  0.12046472  0.93593841    -0.11410
C1865       C  0.73241274  0.09509836  0.91524513     0.03260
C1866       C  0.72691749  0.09253743  0.87254420    -0.10830
H1867       H  0.73366602  0.15844453  0.85389832     0.08850
H1868       H  0.74130496  0.12227174  0.96915914     0.06380
H1869       H  0.72318984  0.07318508  0.85625503     0.06230
C1870       C  0.72836147  0.11570335  0.67119294     0.03260
C1871       C  0.72683459  0.09250801  0.64872755    -0.12890
C1872       C  0.73232273  0.09507660  0.60602894     0.00760
C1873       C  0.73768338  0.12045050  0.58533916    -0.11410
C1874       C  0.73693439  0.14282713  0.60710816     0.03260
C1875       C  0.73285349  0.14060216  0.65015769    -0.10830
H1876       H  0.72310549  0.07314991  0.66501092     0.08850
H1877       H  0.74122576  0.12226028  0.55212017     0.06380
H1878       H  0.73363864  0.15843045  0.66739759     0.06230
O1879       O  0.76603057  0.32057666  0.59348781    -0.75160
O1880       O  0.72776421  0.31583374  0.55519261    -0.54070
C1881       C  0.74736362  0.32817226  0.58330786     0.78570
O1882       O  0.81568359  0.27188583  0.92658789    -0.59760
O1883       O  0.81266656  0.23505503  0.96637868    -0.52790
C1884       C  0.82420882  0.25407028  0.93752853     0.70580
O1885       O  0.76593458  0.32047542  0.92756516    -0.74320
O1886       O  0.72782246  0.31586870  0.96610146    -0.54880
C1887       C  0.74734018  0.32814065  0.93787078     0.76590
O1888       O  0.81572873  0.27191224  0.59464651    -0.59460
O1889       O  0.81263972  0.23501246  0.55495334    -0.52580
C1890       C  0.82422131  0.25406311  0.58375627     0.73180
Zr1891     Zr  0.77970387  0.28495142  0.57234176     2.54710
O1892       O  0.82523026  0.33075494  0.56841549    -0.80030
O1893       O  0.78009624  0.28524788  0.64784454    -0.93440
Zr1894     Zr  0.77974537  0.28501703  0.94900952     2.64680
O1895       O  0.82499329  0.33112793  0.95282416    -0.98400
O1896       O  0.78011725  0.28571034  0.87355254    -0.80460
O1897       O  0.76563201  0.29900509  0.51067528    -0.83820
O1898       O  0.79466819  0.27197928  0.51068353    -2.18530
O1899       O  0.72068047  0.17583877  0.59572169    -0.67210
O1900       O  0.75756115  0.17917863  0.55560564    -0.51770
C1901       C  0.73873578  0.16769208  0.58481750     0.71560
O1902       O  0.66872280  0.22080161  0.92757701    -0.60120
O1903       O  0.67189834  0.25837242  0.96568339    -0.52090
C1904       C  0.66008914  0.23857337  0.93771063     0.73370
O1905       O  0.72066843  0.17577317  0.92564186    -0.71510
O1906       O  0.75766536  0.17922581  0.96560964    -0.50190
C1907       C  0.73878505  0.16768633  0.93647170     0.74750
O1908       O  0.66889230  0.22099897  0.59387450    -0.66840
O1909       O  0.67188570  0.25838334  0.55549447    -0.54040
C1910       C  0.66017709  0.23868718  0.58361915     0.73130
Zr1911     Zr  0.70597308  0.20993538  0.57217971     2.77540
O1912       O  0.66101852  0.16352408  0.56862199    -0.97590
O1913       O  0.70530716  0.21019451  0.64761557    -0.78410
Zr1914     Zr  0.70605251  0.20999648  0.94891863     2.70070
O1915       O  0.66158093  0.16320479  0.95234368    -0.79660
O1916       O  0.70532302  0.21099528  0.87346465    -0.98740
Zr1917     Zr  0.71388085  0.27427991  0.51062837     2.21500
Zr1918     Zr  0.77111074  0.22038500  0.51061855     2.11130
O1919       O  0.71948859  0.19550225  0.51055257    -2.47430
O1920       O  0.69081503  0.22283915  0.51054074    -0.79450
O1921       O  0.75732229  0.23374171  0.57330546    -0.71650
O1922       O  0.72831871  0.26113045  0.94811563    -2.32600
O1923       O  0.72826859  0.26108159  0.57318096    -2.28810
O1924       O  0.75740231  0.23379910  0.94786488    -0.73410
H1925       H  0.81551860  0.28050536  0.51074706     0.78590
H1926       H  0.72182892  0.26711043  0.92407284     0.79680
H1927       H  0.71152706  0.17476718  0.51047811     0.81900
H1928       H  0.72178991  0.26706035  0.59722978     0.79510
H1929       H  0.75938284  0.27460254  0.86556199     0.42550
H1930       H  0.72492961  0.21518256  0.86498050     0.41520
H1931       H  0.65088454  0.16488407  0.97628972     0.41200
H1932       H  0.66637967  0.15027224  0.55487039     0.39130
H1933       H  0.72598624  0.22198100  0.65564210     0.42260
H1934       H  0.76069384  0.28185936  0.65592980     0.37040
H1935       H  0.82224383  0.34146752  0.54568451     0.43160
H1936       H  0.83869467  0.32671254  0.96738907     0.39580
H1937       H  0.65698815  0.15672779  0.59771576     0.44500
H1938       H  0.79362400  0.30568778  0.65544763     0.43220
H1939       H  0.83213254  0.33516831  0.92388632     0.43350
H1940       H  0.69228262  0.19058338  0.86521611     0.43710
O1941       O  0.54014616  0.31621142  0.92548648    -0.75160
O1942       O  0.57413512  0.31300289  0.96478702    -0.54070
C1943       C  0.56653602  0.32446765  0.93579897     0.78570
O1944       O  0.94234794  0.26762572  0.59521598    -0.59760
O1945       O  0.90832226  0.23082009  0.55545928    -0.52790
C1946       C  0.91595225  0.24983187  0.58440676     0.70580
O1947       O  0.54014772  0.31613669  0.59592729    -0.74320
O1948       O  0.57410414  0.31305837  0.55636913    -0.54880
C1949       C  0.56652913  0.32445802  0.58547377     0.76590
O1950       O  0.94228575  0.26762321  0.92618436    -0.59460
O1951       O  0.90827997  0.23072921  0.96584131    -0.52580
C1952       C  0.91589653  0.24978007  0.93694501     0.73180
Zr1953     Zr  0.99125130  0.28120199  0.94892900     2.54710
O1954       O  0.99166405  0.32691198  0.95473732    -0.80030
O1955       O  0.99014659  0.28233520  0.87347616    -0.93440
Zr1956     Zr  0.99130071  0.28132642  0.57217932     2.64680
O1957       O  0.99224329  0.32729907  0.56616605    -0.98400
O1958       O  0.99106289  0.28331910  0.64755819    -0.80460
O1959       O  0.51955141  0.29599408  0.51054182    -0.83820
O1960       O  0.96322182  0.26805065  0.51056389    -2.18530
O1961       O  0.94182058  0.17083338  0.92756525    -0.67210
O1962       O  0.90817397  0.17485133  0.96646533    -0.51770
C1963       C  0.91552214  0.16277898  0.93819926     0.71560
O1964       O  0.53955906  0.21933450  0.59443220    -0.60120
O1965       O  0.57358092  0.25690860  0.55568244    -0.52090
C1966       C  0.56593621  0.23749625  0.58411863     0.73370
O1967       O  0.94184043  0.17072714  0.59367231    -0.71510
O1968       O  0.90817043  0.17488017  0.55501026    -0.50190
C1969       C  0.91553675  0.16272845  0.58314328     0.74750
O1970       O  0.53954270  0.21944813  0.92670783    -0.66840
O1971       O  0.57357969  0.25687399  0.96564546    -0.54040
C1972       C  0.56592471  0.23753972  0.93709932     0.73130
Zr1973     Zr  0.99085908  0.20680094  0.94911922     2.77540
O1974       O  0.99140591  0.16144857  0.95141942    -0.97590
O1975       O  0.99046726  0.20754982  0.87368593    -0.78410
Zr1976     Zr  0.99086191  0.20693718  0.57245726     2.70070
O1977       O  0.99070291  0.16123420  0.57134014    -0.79660
O1978       O  0.99112129  0.20896627  0.64787653    -0.98740
Zr1979     Zr  0.54696679  0.27182646  0.51061203     2.21500
Zr1980     Zr  0.93546897  0.21648266  0.51070692     2.11130
O1981       O  0.96293125  0.19235180  0.51078830    -2.47430
O1982       O  0.51903815  0.22024509  0.51078068    -0.79450
O1983       O  0.96273952  0.22994667  0.94803277    -0.71650
O1984       O  0.51926364  0.25807728  0.57305331    -2.32600
O1985       O  0.51923372  0.25796484  0.94815491    -2.28810
O1986       O  0.96272311  0.23006330  0.57343116    -0.73410
H1987       H  0.95074899  0.27636974  0.51049571     0.78590
H1988       H  0.53167238  0.26414427  0.59717961     0.79680
H1989       H  0.95039527  0.17157176  0.51084923     0.81900
H1990       H  0.53161824  0.26401718  0.92400843     0.79510
H1991       H  0.49989728  0.27171784  0.65658249     0.42550
H1992       H  0.97468459  0.21190080  0.65503751     0.41520
H1993       H  0.50039504  0.16165114  0.54494974     0.41200
H1994       H  0.97377258  0.14799578  0.96719750     0.39130
H1995       H  0.98055534  0.21850658  0.86663563     0.42260
H1996       H  0.50610530  0.27916915  0.86436381     0.37040
H1997       H  0.50812095  0.33884552  0.97351038     0.43160
H1998       H  0.97303813  0.32223255  0.55460928     0.39580
H1999       H  0.98717348  0.15411607  0.92258930     0.44500
H2000       H  0.99686925  0.30281500  0.86646951     0.43220
H2001       H  0.99163413  0.33304717  0.59516713     0.43350
H2002       H  0.98477783  0.18891210  0.65687374     0.43710
O2003       O  0.76374602  0.44752760  0.92739237    -0.75160
O2004       O  0.72577634  0.41352688  0.96559356    -0.54070
C2005       C  0.74552202  0.42114467  0.93752801     0.78570
O2006       O  0.81068775  0.04540328  0.59578637    -0.59760
O2007       O  0.80795252  0.07914825  0.55546450    -0.52790
C2008       C  0.81919627  0.07170029  0.58478831     0.70580
O2009       O  0.76366275  0.44752234  0.59410618    -0.74320
O2010       O  0.72583517  0.41355076  0.55563729    -0.54880
C2011       C  0.74550255  0.42114757  0.58383066     0.76590
O2012       O  0.81073511  0.04544921  0.92566277    -0.59460
O2013       O  0.80788822  0.07918111  0.96585882    -0.52580
C2014       C  0.81918039  0.07174458  0.93659717     0.73180
Zr2015     Zr  0.77609162  0.49634397  0.94890857     2.54710
O2016       O  0.82243344  0.49780354  0.95397375    -0.80030
O2017       O  0.77719500  0.99629232  0.87341526    -0.93440
Zr2018     Zr  0.77615172  0.49630999  0.57232318     2.64680
O2019       O  0.82227115  0.49723662  0.56760918    -0.98400
O2020       O  0.77710282  0.99558747  0.64775510    -0.80460
O2021       O  0.76258657  0.46825621  0.51060223    -0.83820
O2022       O  0.79087831  0.02429249  0.51061551    -2.18530
O2023       O  0.71524918  0.04540910  0.92684883    -0.67210
O2024       O  0.75250739  0.07893332  0.96645680    -0.51770
C2025       C  0.73338351  0.07163527  0.93773811     0.71560
O2026       O  0.66373477  0.44816455  0.59112046    -0.60120
O2027       O  0.66857821  0.41410105  0.55471531    -0.52090
C2028       C  0.65573500  0.42182172  0.58140086     0.73370
O2029       O  0.71511611  0.04539256  0.59434818    -0.71510
O2030       O  0.75253080  0.07893193  0.55498406    -0.50190
C2031       C  0.73331469  0.07162346  0.58356001     0.74750
O2032       O  0.66386118  0.44812796  0.92995778    -0.66840
O2033       O  0.66855720  0.41406352  0.96660085    -0.54040
C2034       C  0.65579464  0.42178459  0.93977300     0.73130
Zr2035     Zr  0.70186159  0.49652452  0.94906938     2.77540
O2036       O  0.65651408  0.49731413  0.94940201    -0.97590
O2037       O  0.70328141  0.49505291  0.87372576    -0.78410
Zr2038     Zr  0.70198001  0.49653274  0.57240515     2.70070
O2039       O  0.65707888  0.49811590  0.57286472    -0.79660
O2040       O  0.70380508  0.49453386  0.64768367    -0.98740
Zr2041     Zr  0.71093634  0.44048187  0.51062841     2.21500
Zr2042     Zr  0.76669533  0.05168023  0.51070639     2.11130
O2043       O  0.71506116  0.02435880  0.51074112    -2.47430
O2044       O  0.68748385  0.46855351  0.51073405    -0.79450
O2045       O  0.75315266  0.02464027  0.94795930    -0.71650
O2046       O  0.72475013  0.46806475  0.57321335    -2.32600
O2047       O  0.72468181  0.46808669  0.94803686    -2.28810
O2048       O  0.75326733  0.02466875  0.57350272    -0.73410
H2049       H  0.81169304  0.03689781  0.51054108     0.78590
H2050       H  0.71833330  0.45555088  0.59721425     0.79680
H2051       H  0.70678089  0.03685511  0.51079860     0.81900
H2052       H  0.71827406  0.45559543  0.92401293     0.79510
H2053       H  0.75641497  0.48490569  0.65604894     0.42550
H2054       H  0.72299415  0.01112367  0.65528110     0.41520
H2055       H  0.64879679  0.49141415  0.54486240     0.41200
H2056       H  0.66074787  0.01476908  0.96558987     0.39130
H2057       H  0.72418463  0.00642737  0.86674279     0.42260
H2058       H  0.75819232  0.47974097  0.86505025     0.37040
H2059       H  0.81941787  0.48356373  0.97589128     0.43160
H2060       H  0.83589328  0.01628248  0.55518874     0.39580
H2061       H  0.65424559  0.50214505  0.92051543     0.44500
H2062       H  0.79145898  0.49021860  0.86630510     0.43220
H2063       H  0.82880690  0.49883977  0.59671989     0.43350
H2064       H  0.68965651  0.50011515  0.65747245     0.43710
C2065       C  0.74986178  0.11348244  0.73888615    -0.01710
C2066       C  0.72758787  0.11481115  0.71698006     0.07970
C2067       C  0.70530367  0.11610845  0.73883680    -0.01830
C2068       C  0.70532403  0.11612731  0.78245142    -0.01830
C2069       C  0.72762328  0.11483727  0.80429578     0.08100
C2070       C  0.74988008  0.11349650  0.78237435    -0.02030
Br2071     Br  0.78149269  0.11320886  0.81164461    -0.00570
Br2072     Br  0.78144273  0.11316375  0.70959203    -0.00650
Br2073     Br  0.67437237  0.11720266  0.81216835    -0.00610
Br2074     Br  0.67431119  0.11712890  0.70913062    -0.00590
C2075       C  0.85107018  0.23544529  0.78240799    -0.01710
C2076       C  0.87339751  0.25898818  0.80428234     0.07970
C2077       C  0.89585128  0.28241371  0.78246759    -0.01830
C2078       C  0.89585426  0.28242138  0.73887274    -0.01830
C2079       C  0.87341064  0.25899726  0.71703721     0.08100
C2080       C  0.85107910  0.23544755  0.73889257    -0.02030
Br2081     Br  0.82105705  0.20243800  0.70935584    -0.00570
Br2082     Br  0.82102902  0.20243970  0.81192249    -0.00650
Br2083     Br  0.92624446  0.31485631  0.70909296    -0.00610
Br2084     Br  0.92625349  0.31482472  0.81227559    -0.00590
C2085       C  0.86891587  0.08953311  0.73889820    -0.01710
C2086       C  0.87247745  0.11401118  0.71692291     0.07970
C2087       C  0.87620635  0.13858811  0.73888392    -0.01830
C2088       C  0.87616416  0.13858957  0.78240940    -0.01830
C2089       C  0.87240684  0.11402041  0.80443031     0.08100
C2090       C  0.86887600  0.08953527  0.78251471    -0.02030
Br2091     Br  0.86480438  0.05614628  0.81202468    -0.00570
Br2092     Br  0.86492871  0.05615619  0.70946605    -0.00650
Br2093     Br  0.87960609  0.17197652  0.81141782    -0.00610
Br2094     Br  0.87974149  0.17198994  0.70978975    -0.00590
C2095       C  0.62875862  0.25133976  0.78242028    -0.01710
C2096       C  0.60803372  0.22682513  0.80444841     0.07970
C2097       C  0.58730216  0.20220954  0.78250856    -0.01830
C2098       C  0.58731427  0.20222114  0.73873545    -0.01830
C2099       C  0.60805598  0.22685026  0.71683120     0.08100
C2100       C  0.62876828  0.25135346  0.73889836    -0.02030
Br2101     Br  0.65665796  0.28552223  0.70944620    -0.00570
Br2102     Br  0.65664271  0.28548371  0.81193077    -0.00650
Br2103     Br  0.55953022  0.16830031  0.70872989    -0.00610
Br2104     Br  0.55949672  0.16827782  0.81246883    -0.00530
C2105       C  0.58013922  0.37411454  0.78250933    -0.01710
C2106       C  0.60616354  0.38299671  0.80485650     0.07970
C2107       C  0.63257390  0.39409348  0.78244756    -0.01830
C2108       C  0.63257749  0.39411304  0.73875421    -0.01830
C2109       C  0.60617078  0.38302140  0.71633458     0.08100
C2110       C  0.58014057  0.37411634  0.73866277    -0.02030
Br2111     Br  0.54450165  0.36365558  0.70944213    -0.00570
Br2112     Br  0.54451145  0.36370443  0.81169571    -0.00650
Br2113     Br  0.66953398  0.40890120  0.71070736    -0.00610
Br2114     Br  0.66952975  0.40883864  0.81049572    -0.00590
C2115       C  0.78110775  0.38465041  0.78254180    -0.01710
C2116       C  0.75587494  0.37902126  0.80445886     0.07970
C2117       C  0.73042253  0.37228937  0.78241338    -0.01830
C2118       C  0.73041440  0.37226660  0.73885822    -0.01830
C2119       C  0.75585191  0.37894584  0.71682189     0.08100
C2120       C  0.78109311  0.38460190  0.73875376    -0.02030
Br2121     Br  0.81553878  0.39228632  0.70875350    -0.00570
Br2122     Br  0.81558220  0.39243078  0.81256634    -0.00650
Br2123     Br  0.69504981  0.36138338  0.70911791    -0.00610
Br2124     Br  0.69505613  0.36136864  0.81214865    -0.00590
C2125       C  0.75522466  0.87882191  0.17080422     0.03260
C2126       C  0.75302216  0.90051350  0.14917956    -0.12890
C2127       C  0.74764021  0.89808484  0.10626297     0.00760
C2128       C  0.74483181  0.87381215  0.08497540    -0.11410
C2129       C  0.74858476  0.85279579  0.10594986     0.03260
C2130       C  0.75365313  0.85539345  0.14888304    -0.10830
H2131       H  0.75433175  0.91868207  0.16612798     0.08850
H2132       H  0.74091485  0.87188658  0.05184683     0.06380
H2133       H  0.75534300  0.83864328  0.16554602     0.06230
C2134       C  0.75524648  0.87888576  0.35047520     0.03260
C2135       C  0.75306001  0.90057174  0.37213842    -0.12890
C2136       C  0.74766599  0.89810217  0.41505485     0.00760
C2137       C  0.74482920  0.87379793  0.43629239    -0.11410
C2138       C  0.74856342  0.85278635  0.41527396     0.03260
C2139       C  0.75364087  0.85542541  0.37235062    -0.10830
H2140       H  0.75439140  0.91876574  0.35522526     0.08850
H2141       H  0.74090443  0.87184414  0.46941722     0.06380
H2142       H  0.75531242  0.83868109  0.35565167     0.06230
C2143       C  0.60588154  0.87997596  0.35120939     0.03260
C2144       C  0.62551842  0.90326374  0.37599562    -0.12890
C2145       C  0.63063316  0.89880112  0.41732076     0.00760
C2146       C  0.61232730  0.87205148  0.43617798    -0.11410
C2147       C  0.58944888  0.84987834  0.41372539     0.03260
C2148       C  0.58737363  0.85330281  0.37079064    -0.10830
H2149       H  0.63855048  0.92443783  0.36209258     0.08850
H2150       H  0.61496038  0.86905638  0.46880185     0.06380
H2151       H  0.57138492  0.83515336  0.35278301     0.06230
C2152       C  0.60589124  0.88000116  0.16998908     0.03260
C2153       C  0.62548924  0.90329790  0.14518340    -0.12890
C2154       C  0.63057889  0.89883673  0.10384905     0.00760
C2155       C  0.61229278  0.87207154  0.08501789    -0.11410
C2156       C  0.58945779  0.84988026  0.10750777     0.03260
C2157       C  0.58741643  0.85331048  0.15044029    -0.10830
H2158       H  0.63851627  0.92447740  0.15907541     0.08850
H2159       H  0.61490916  0.86907629  0.05239149     0.06380
H2160       H  0.57146862  0.83515359  0.16847469     0.06230
C2161       C  0.60814893  0.72772235  0.17084482     0.03260
C2162       C  0.58645689  0.73003182  0.14944673    -0.12890
C2163       C  0.58903838  0.73570542  0.10663729     0.00760
C2164       C  0.61371150  0.73949218  0.08541600    -0.11410
C2165       C  0.63489323  0.73599619  0.10617156     0.03260
C2166       C  0.63173851  0.72962631  0.14873719    -0.10830
H2167       H  0.56814287  0.72847599  0.16639421     0.08850
H2168       H  0.61586076  0.74401504  0.05244082     0.06380
H2169       H  0.64843542  0.72768234  0.16522409     0.06230
C2170       C  0.60810069  0.72767575  0.35043317     0.03260
C2171       C  0.58643741  0.73005076  0.37178816    -0.12890
C2172       C  0.58901568  0.73572814  0.41459517     0.00760
C2173       C  0.61365870  0.73945173  0.43585672    -0.11410
C2174       C  0.63480670  0.73588885  0.41514470     0.03260
C2175       C  0.63165402  0.72951597  0.37258024    -0.10830
H2176       H  0.56815028  0.72853995  0.35480958     0.08850
H2177       H  0.61581096  0.74397919  0.46883004     0.06380
H2178       H  0.64833421  0.72753273  0.35612262     0.06230
C2179       C  0.87132890  0.61384171  0.35032813     0.03260
C2180       C  0.89472870  0.63518350  0.37308459    -0.12890
C2181       C  0.89205845  0.63815670  0.41574779     0.00760
C2182       C  0.86660828  0.61802697  0.43632830    -0.11410
C2183       C  0.84416063  0.59492355  0.41440706     0.03260
C2184       C  0.84622620  0.59348718  0.37127616    -0.10830
H2185       H  0.91433703  0.65063847  0.35701224     0.08850
H2186       H  0.86478390  0.61967447  0.46955776     0.06380
H2187       H  0.82815144  0.57671918  0.35395923     0.06230
C2188       C  0.87140488  0.61379444  0.17102392     0.03260
C2189       C  0.89479792  0.63512179  0.14824851    -0.12890
C2190       C  0.89209859  0.63809022  0.10558807     0.00760
C2191       C  0.86663652  0.61796477  0.08502629    -0.11410
C2192       C  0.84419860  0.59486668  0.10696432     0.03260
C2193       C  0.84629037  0.59343567  0.15009341    -0.10830
H2194       H  0.91441620  0.65058274  0.16430543     0.08850
H2195       H  0.86479276  0.61961759  0.05180018     0.06380
H2196       H  0.82822053  0.57667903  0.16742614     0.06230
C2197       C  0.87343799  0.75859232  0.17127588     0.03260
C2198       C  0.85127655  0.75957646  0.14918389    -0.12890
C2199       C  0.84888397  0.75523221  0.10621085     0.00760
C2200       C  0.86954403  0.75091318  0.08515427    -0.11410
C2201       C  0.89289570  0.75180968  0.10675623     0.03260
C2202       C  0.89452600  0.75531731  0.14989659    -0.10830
H2203       H  0.83507286  0.76224871  0.16582163     0.08850
H2204       H  0.86800607  0.74785819  0.05184056     0.06380
H2205       H  0.91182579  0.75484761  0.16699530     0.06230
C2206       C  0.87341221  0.75857205  0.35004269     0.03260
C2207       C  0.85126071  0.75957750  0.37211422    -0.12890
C2208       C  0.84886212  0.75522967  0.41508690     0.00760
C2209       C  0.86950293  0.75088335  0.43616393    -0.11410
C2210       C  0.89283984  0.75175383  0.41458181     0.03260
C2211       C  0.89447910  0.75526629  0.37144167    -0.10830
H2212       H  0.83506974  0.76226828  0.35546158     0.08850
H2213       H  0.86796390  0.74782910  0.46947824     0.06380
H2214       H  0.91177511  0.75478538  0.35435977     0.06230
C2215       C  0.72842122  0.61572950  0.35008405     0.03260
C2216       C  0.73290265  0.64061879  0.37112713    -0.12890
C2217       C  0.73699460  0.64283536  0.41417562     0.00760
C2218       C  0.73776265  0.62046472  0.43593841    -0.11410
C2219       C  0.73241273  0.59509835  0.41524513     0.03260
C2220       C  0.72691747  0.59253742  0.37254420    -0.10830
H2221       H  0.73366601  0.65844453  0.35389831     0.08850
H2222       H  0.74130496  0.62227174  0.46915913     0.06380
H2223       H  0.72318982  0.57318507  0.35625502     0.06230
C2224       C  0.72836146  0.61570335  0.17119293     0.03260
C2225       C  0.72683458  0.59250800  0.14872755    -0.12890
C2226       C  0.73232273  0.59507659  0.10602893     0.00760
C2227       C  0.73768338  0.62045050  0.08533915    -0.11410
C2228       C  0.73693438  0.64282713  0.10710816     0.03260
C2229       C  0.73285349  0.64060216  0.15015769    -0.10830
H2230       H  0.72310547  0.57314990  0.16501092     0.08850
H2231       H  0.74122575  0.62226028  0.05212017     0.06380
H2232       H  0.73363864  0.65843044  0.16739759     0.06230
O2233       O  0.76603057  0.82057665  0.09348781    -0.75160
O2234       O  0.72776420  0.81583373  0.05519261    -0.54070
C2235       C  0.74736362  0.82817225  0.08330786     0.78570
O2236       O  0.81568359  0.77188583  0.42658789    -0.59760
O2237       O  0.81266656  0.73505502  0.46637867    -0.52790
C2238       C  0.82420882  0.75407027  0.43752852     0.70580
O2239       O  0.76593458  0.82047542  0.42756516    -0.74320
O2240       O  0.72782247  0.81586870  0.46610146    -0.54880
C2241       C  0.74734019  0.82814066  0.43787078     0.76590
O2242       O  0.81572872  0.77191224  0.09464651    -0.59460
O2243       O  0.81263972  0.73501246  0.05495334    -0.52580
C2244       C  0.82422131  0.75406311  0.08375627     0.73180
Zr2245     Zr  0.77970387  0.78495141  0.07234176     2.54710
O2246       O  0.82523025  0.83075494  0.06841549    -0.80030
O2247       O  0.78009623  0.78524787  0.14784454    -0.93440
Zr2248     Zr  0.77974537  0.78501703  0.44900951     2.64680
O2249       O  0.82499329  0.83112793  0.45282415    -0.98400
O2250       O  0.78011724  0.78571033  0.37355254    -0.80460
O2251       O  0.76563200  0.79900509  0.01067528    -0.83820
O2252       O  0.79466819  0.77197927  0.01068353    -2.18530
O2253       O  0.72068047  0.67583876  0.09572168    -0.67210
O2254       O  0.75756115  0.67917862  0.05560564    -0.51770
C2255       C  0.73873577  0.66769208  0.08481750     0.71560
O2256       O  0.66872280  0.72080161  0.42757701    -0.60120
O2257       O  0.67189834  0.75837242  0.46568338    -0.52090
C2258       C  0.66008914  0.73857337  0.43771063     0.73370
O2259       O  0.72066843  0.67577317  0.42564185    -0.71510
O2260       O  0.75766536  0.67922580  0.46560964    -0.50190
C2261       C  0.73878505  0.66768633  0.43647170     0.74750
O2262       O  0.66889230  0.72099896  0.09387449    -0.66840
O2263       O  0.67188570  0.75838333  0.05549447    -0.54040
C2264       C  0.66017709  0.73868717  0.08361914     0.73130
Zr2265     Zr  0.70597308  0.70993537  0.07217970     2.77540
O2266       O  0.66101851  0.66352407  0.06862196    -0.97590
O2267       O  0.70530714  0.71019449  0.14761556    -0.78410
Zr2268     Zr  0.70605250  0.70999648  0.44891863     2.70070
O2269       O  0.66158093  0.66320479  0.45234367    -0.79660
O2270       O  0.70532302  0.71099529  0.37346465    -0.98740
Zr2271     Zr  0.71388085  0.77427991  0.01062837     2.21500
Zr2272     Zr  0.77111073  0.72038500  0.01061854     2.11130
O2273       O  0.71948859  0.69550225  0.01055256    -2.47430
O2274       O  0.69081503  0.72283914  0.01054072    -0.79450
O2275       O  0.75732228  0.73374170  0.07330546    -0.71650
O2276       O  0.72831871  0.76113046  0.44811562    -2.32600
O2277       O  0.72826858  0.76108159  0.07318095    -2.28810
O2278       O  0.75740231  0.73379910  0.44786488    -0.73410
H2279       H  0.81551859  0.78050536  0.01074706     0.78590
H2280       H  0.72182892  0.76711043  0.42407283     0.79680
H2281       H  0.71152706  0.67476717  0.01047809     0.81900
H2282       H  0.72178990  0.76706035  0.09722977     0.79510
H2283       H  0.75938284  0.77460255  0.36556199     0.42550
H2284       H  0.72492960  0.71518256  0.36498050     0.41520
H2285       H  0.65088454  0.66488407  0.47628973     0.41200
H2286       H  0.66637967  0.65027223  0.05487036     0.39130
H2287       H  0.72598622  0.72198099  0.15564210     0.42260
H2288       H  0.76069383  0.78185935  0.15592980     0.37040
H2289       H  0.82224382  0.84146752  0.04568452     0.43160
H2290       H  0.83869467  0.82671254  0.46738907     0.39580
H2291       H  0.65698813  0.65672779  0.09771573     0.44500
H2292       H  0.79362399  0.80568777  0.15544764     0.43220
H2293       H  0.83213254  0.83516830  0.42388631     0.43350
H2294       H  0.69228262  0.69058339  0.36521610     0.43710
O2295       O  0.54014617  0.81621143  0.42548647    -0.75160
O2296       O  0.57413513  0.81300289  0.46478702    -0.54070
C2297       C  0.56653603  0.82446766  0.43579897     0.78570
O2298       O  0.94234793  0.76762572  0.09521598    -0.59760
O2299       O  0.90832226  0.73082008  0.05545928    -0.52790
C2300       C  0.91595225  0.74983187  0.08440676     0.70580
O2301       O  0.54014772  0.81613669  0.09592729    -0.74320
O2302       O  0.57410414  0.81305837  0.05636912    -0.54880
C2303       C  0.56652913  0.82445803  0.08547377     0.76590
O2304       O  0.94228575  0.76762321  0.42618435    -0.59460
O2305       O  0.90827997  0.73072921  0.46584131    -0.52580
C2306       C  0.91589653  0.74978007  0.43694500     0.73180
Zr2307     Zr  0.99125129  0.78120199  0.44892900     2.54710
O2308       O  0.99166405  0.82691198  0.45473733    -0.80030
O2309       O  0.99014658  0.78233521  0.37347616    -0.93440
Zr2310     Zr  0.99130070  0.78132641  0.07217932     2.64680
O2311       O  0.99224329  0.82729907  0.06616607    -0.98400
O2312       O  0.99106288  0.78331908  0.14755819    -0.80460
O2313       O  0.51955140  0.79599408  0.01054182    -0.83820
O2314       O  0.96322182  0.76805064  0.01056389    -2.18530
O2315       O  0.94182057  0.67083338  0.42756525    -0.67210
O2316       O  0.90817397  0.67485133  0.46646534    -0.51770
C2317       C  0.91552214  0.66277897  0.43819927     0.71560
O2318       O  0.53955907  0.71933450  0.09443220    -0.60120
O2319       O  0.57358092  0.75690860  0.05568244    -0.52090
C2320       C  0.56593621  0.73749625  0.08411863     0.73370
O2321       O  0.94184043  0.67072714  0.09367231    -0.71510
O2322       O  0.90817042  0.67488016  0.05501026    -0.50190
C2323       C  0.91553675  0.66272844  0.08314328     0.74750
O2324       O  0.53954270  0.71944813  0.42670782    -0.66840
O2325       O  0.57357969  0.75687400  0.46564545    -0.54040
C2326       C  0.56592471  0.73753973  0.43709931     0.73130
Zr2327     Zr  0.99085908  0.70680094  0.44911921     2.77540
O2328       O  0.99140591  0.66144857  0.45141941    -0.97590
O2329       O  0.99046725  0.70754983  0.37368593    -0.78410
Zr2330     Zr  0.99086191  0.70693717  0.07245726     2.70070
O2331       O  0.99070291  0.66123420  0.07134014    -0.79660
O2332       O  0.99112129  0.70896626  0.14787654    -0.98740
Zr2333     Zr  0.54696679  0.77182645  0.01061203     2.21500
Zr2334     Zr  0.93546896  0.71648265  0.01070692     2.11130
O2335       O  0.96293125  0.69235179  0.01078830    -2.47430
O2336       O  0.51903815  0.72024509  0.01078068    -0.79450
O2337       O  0.96273952  0.72994667  0.44803277    -0.71650
O2338       O  0.51926364  0.75807727  0.07305330    -2.32600
O2339       O  0.51923372  0.75796485  0.44815490    -2.28810
O2340       O  0.96272311  0.73006330  0.07343116    -0.73410
H2341       H  0.95074899  0.77636974  0.01049572     0.78590
H2342       H  0.53167238  0.76414427  0.09717960     0.79680
H2343       H  0.95039527  0.67157176  0.01084923     0.81900
H2344       H  0.53161824  0.76401719  0.42400842     0.79510
H2345       H  0.49989729  0.77171783  0.15658248     0.42550
H2346       H  0.97468459  0.71190079  0.15503752     0.41520
H2347       H  0.50039510  0.66165117  0.04494976     0.41200
H2348       H  0.97377258  0.64799578  0.46719749     0.39130
H2349       H  0.98055534  0.71850659  0.36663564     0.42260
H2350       H  0.50610530  0.77916917  0.36436380     0.37040
H2351       H  0.50812097  0.83884554  0.47351037     0.43160
H2352       H  0.97303814  0.82223255  0.05460927     0.39580
H2353       H  0.98717347  0.65411607  0.42258929     0.44500
H2354       H  0.99686924  0.80281501  0.36646951     0.43220
H2355       H  0.99163410  0.83304715  0.09516714     0.43350
H2356       H  0.98477783  0.68891209  0.15687374     0.43710
O2357       O  0.76374602  0.94752761  0.42739237    -0.75160
O2358       O  0.72577634  0.91352689  0.46559356    -0.54070
C2359       C  0.74552203  0.92114467  0.43752801     0.78570
O2360       O  0.81068774  0.54540328  0.09578638    -0.59760
O2361       O  0.80795251  0.57914824  0.05546450    -0.52790
C2362       C  0.81919626  0.57170029  0.08478831     0.70580
O2363       O  0.76366275  0.94752233  0.09410618    -0.74320
O2364       O  0.72583517  0.91355076  0.05563729    -0.54880
C2365       C  0.74550255  0.92114757  0.08383066     0.76590
O2366       O  0.81073511  0.54544921  0.42566278    -0.59460
O2367       O  0.80788821  0.57918112  0.46585882    -0.52580
C2368       C  0.81918039  0.57174459  0.43659717     0.73180
Zr2369     Zr  0.77609162  0.99634397  0.44890857     2.54710
O2370       O  0.82243344  0.99780354  0.45397375    -0.80030
O2371       O  0.77719500  0.49629232  0.37341527    -0.93440
Zr2372     Zr  0.77615173  0.99630998  0.07232318     2.64680
O2373       O  0.82227116  0.99723661  0.06760915    -0.98400
O2374       O  0.77710282  0.49558747  0.14775510    -0.80460
O2375       O  0.76258657  0.96825621  0.01060222    -0.83820
O2376       O  0.79087831  0.52429248  0.01061551    -2.18530
O2377       O  0.71524917  0.54540910  0.42684883    -0.67210
O2378       O  0.75250738  0.57893332  0.46645680    -0.51770
C2379       C  0.73338350  0.57163527  0.43773810     0.71560
O2380       O  0.66373477  0.94816455  0.09112046    -0.60120
O2381       O  0.66857821  0.91410105  0.05471531    -0.52090
C2382       C  0.65573500  0.92182172  0.08140085     0.73370
O2383       O  0.71511610  0.54539256  0.09434818    -0.71510
O2384       O  0.75253079  0.57893192  0.05498406    -0.50190
C2385       C  0.73331469  0.57162346  0.08356001     0.74750
O2386       O  0.66386118  0.94812796  0.42995777    -0.66840
O2387       O  0.66855721  0.91406352  0.46660085    -0.54040
C2388       C  0.65579465  0.92178459  0.43977300     0.73130
Zr2389     Zr  0.70186159  0.99652452  0.44906938     2.77540
O2390       O  0.65651409  0.99731414  0.44940201    -0.97590
O2391       O  0.70328142  0.99505291  0.37372576    -0.78410
Zr2392     Zr  0.70198003  0.99653274  0.07240515     2.70070
O2393       O  0.65707890  0.99811591  0.07286476    -0.79660
O2394       O  0.70380510  0.99453385  0.14768368    -0.98740
Zr2395     Zr  0.71093634  0.94048187  0.01062841     2.21500
Zr2396     Zr  0.76669532  0.55168023  0.01070639     2.11130
O2397       O  0.71506115  0.52435879  0.01074112    -2.47430
O2398       O  0.68748385  0.96855352  0.01073406    -0.79450
O2399       O  0.75315265  0.52464027  0.44795930    -0.71650
O2400       O  0.72475013  0.96806475  0.07321335    -2.32600
O2401       O  0.72468182  0.96808669  0.44803686    -2.28810
O2402       O  0.75326733  0.52466875  0.07350272    -0.73410
H2403       H  0.81169303  0.53689781  0.01054108     0.78590
H2404       H  0.71833331  0.95555088  0.09721425     0.79680
H2405       H  0.70678089  0.53685510  0.01079859     0.81900
H2406       H  0.71827407  0.95559543  0.42401293     0.79510
H2407       H  0.75641500  0.98490570  0.15604895     0.42550
H2408       H  0.72299414  0.51112367  0.15528110     0.41520
H2409       H  0.64879682  0.99141420  0.04486242     0.41200
H2410       H  0.66074786  0.51476907  0.46558985     0.39130
H2411       H  0.72418464  0.50642738  0.36674279     0.42260
H2412       H  0.75819232  0.97974097  0.36505025     0.37040
H2413       H  0.81941788  0.98356373  0.47589129     0.43160
H2414       H  0.83589328  0.51628248  0.05518874     0.39580
H2415       H  0.65424559  0.00214505  0.42051542     0.44500
H2416       H  0.79145899  0.99021861  0.36630510     0.43220
H2417       H  0.82880689  0.99883973  0.09671985     0.43350
H2418       H  0.68965653  0.00011514  0.15747247     0.43710
C2419       C  0.74986176  0.61348243  0.23888615    -0.01710
C2420       C  0.72758786  0.61481115  0.21698006     0.07970
C2421       C  0.70530366  0.61610844  0.23883680    -0.01830
C2422       C  0.70532402  0.61612731  0.28245142    -0.01830
C2423       C  0.72762326  0.61483726  0.30429578     0.08100
C2424       C  0.74988006  0.61349648  0.28237435    -0.02030
Br2425     Br  0.78149266  0.61320884  0.31164461    -0.00570
Br2426     Br  0.78144271  0.61316372  0.20959203    -0.00650
Br2427     Br  0.67437237  0.61720267  0.31216834    -0.00610
Br2428     Br  0.67431118  0.61712891  0.20913062    -0.00590
C2429       C  0.85107018  0.73544529  0.28240799    -0.01710
C2430       C  0.87339751  0.75898818  0.30428233     0.07970
C2431       C  0.89585128  0.78241372  0.28246758    -0.01830
C2432       C  0.89585426  0.78242138  0.23887274    -0.01830
C2433       C  0.87341064  0.75899726  0.21703720     0.08100
C2434       C  0.85107910  0.73544755  0.23889257    -0.02030
Br2435     Br  0.82105706  0.70243801  0.20935583    -0.00570
Br2436     Br  0.82102903  0.70243970  0.31192248    -0.00650
Br2437     Br  0.92624447  0.81485631  0.20909296    -0.00610
Br2438     Br  0.92625349  0.81482472  0.31227559    -0.00590
C2439       C  0.86891586  0.58953310  0.23889821    -0.01710
C2440       C  0.87247746  0.61401117  0.21692291     0.07970
C2441       C  0.87620636  0.63858811  0.23888392    -0.01830
C2442       C  0.87616417  0.63858956  0.28240940    -0.01830
C2443       C  0.87240684  0.61402041  0.30443031     0.08100
C2444       C  0.86887599  0.58953526  0.28251472    -0.02030
Br2445     Br  0.86480436  0.55614627  0.31202468    -0.00570
Br2446     Br  0.86492869  0.55615617  0.20946606    -0.00650
Br2447     Br  0.87960613  0.67197653  0.31141782    -0.00610
Br2448     Br  0.87974152  0.67198995  0.20978975    -0.00590
C2449       C  0.62875863  0.75133976  0.28242028    -0.01710
C2450       C  0.60803372  0.72682513  0.30444841     0.07970
C2451       C  0.58730217  0.70220953  0.28250856    -0.01830
C2452       C  0.58731427  0.70222113  0.23873545    -0.01830
C2453       C  0.60805598  0.72685026  0.21683120     0.08100
C2454       C  0.62876829  0.75135346  0.23889835    -0.02030
Br2455     Br  0.65665797  0.78552222  0.20944620    -0.00570
Br2456     Br  0.65664271  0.78548371  0.31193076    -0.00650
Br2457     Br  0.55953022  0.66830031  0.20872988    -0.00610
Br2458     Br  0.55949672  0.66827781  0.31246883    -0.00530
C2459       C  0.58013923  0.87411454  0.28250933    -0.01710
C2460       C  0.60616354  0.88299671  0.30485650     0.07970
C2461       C  0.63257390  0.89409348  0.28244755    -0.01830
C2462       C  0.63257749  0.89411304  0.23875420    -0.01830
C2463       C  0.60617078  0.88302140  0.21633457     0.08100
C2464       C  0.58014057  0.87411634  0.23866276    -0.02030
Br2465     Br  0.54450166  0.86365559  0.20944213    -0.00570
Br2466     Br  0.54451146  0.86370444  0.31169570    -0.00650
Br2467     Br  0.66953398  0.90890120  0.21070734    -0.00610
Br2468     Br  0.66952976  0.90883864  0.31049570    -0.00590
C2469       C  0.78110775  0.88465041  0.28254180    -0.01710
C2470       C  0.75587494  0.87902127  0.30445886     0.07970
C2471       C  0.73042253  0.87228937  0.28241339    -0.01830
C2472       C  0.73041439  0.87226660  0.23885823    -0.01830
C2473       C  0.75585191  0.87894583  0.21682190     0.08100
C2474       C  0.78109311  0.88460190  0.23875375    -0.02030
Br2475     Br  0.81553877  0.89228631  0.20875350    -0.00570
Br2476     Br  0.81558221  0.89243078  0.31256634    -0.00650
Br2477     Br  0.69504981  0.86138337  0.20911792    -0.00610
Br2478     Br  0.69505613  0.86136864  0.31214866    -0.00590
C2479       C  0.75522466  0.87882191  0.67080422     0.03260
C2480       C  0.75302216  0.90051350  0.64917956    -0.12890
C2481       C  0.74764021  0.89808484  0.60626297     0.00760
C2482       C  0.74483181  0.87381216  0.58497540    -0.11410
C2483       C  0.74858476  0.85279579  0.60594986     0.03260
C2484       C  0.75365314  0.85539345  0.64888304    -0.10830
H2485       H  0.75433176  0.91868208  0.66612798     0.08850
H2486       H  0.74091485  0.87188658  0.55184683     0.06380
H2487       H  0.75534300  0.83864329  0.66554602     0.06230
C2488       C  0.75524648  0.87888576  0.85047520     0.03260
C2489       C  0.75306001  0.90057174  0.87213842    -0.12890
C2490       C  0.74766599  0.89810217  0.91505485     0.00760
C2491       C  0.74482920  0.87379793  0.93629239    -0.11410
C2492       C  0.74856342  0.85278635  0.91527396     0.03260
C2493       C  0.75364087  0.85542541  0.87235062    -0.10830
H2494       H  0.75439140  0.91876574  0.85522526     0.08850
H2495       H  0.74090443  0.87184414  0.96941722     0.06380
H2496       H  0.75531242  0.83868109  0.85565167     0.06230
C2497       C  0.60588154  0.87997596  0.85120939     0.03260
C2498       C  0.62551842  0.90326374  0.87599562    -0.12890
C2499       C  0.63063316  0.89880112  0.91732077     0.00760
C2500       C  0.61232730  0.87205148  0.93617799    -0.11410
C2501       C  0.58944888  0.84987834  0.91372539     0.03260
C2502       C  0.58737363  0.85330281  0.87079065    -0.10830
H2503       H  0.63855048  0.92443783  0.86209259     0.08850
H2504       H  0.61496038  0.86905637  0.96880185     0.06380
H2505       H  0.57138492  0.83515336  0.85278301     0.06230
C2506       C  0.60589124  0.88000116  0.66998908     0.03260
C2507       C  0.62548924  0.90329790  0.64518341    -0.12890
C2508       C  0.63057889  0.89883673  0.60384905     0.00760
C2509       C  0.61229278  0.87207155  0.58501789    -0.11410
C2510       C  0.58945779  0.84988026  0.60750777     0.03260
C2511       C  0.58741643  0.85331049  0.65044029    -0.10830
H2512       H  0.63851627  0.92447740  0.65907541     0.08850
H2513       H  0.61490916  0.86907629  0.55239149     0.06380
H2514       H  0.57146862  0.83515359  0.66847469     0.06230
C2515       C  0.60814893  0.72772236  0.67084482     0.03260
C2516       C  0.58645689  0.73003183  0.64944672    -0.12890
C2517       C  0.58903838  0.73570542  0.60663729     0.00760
C2518       C  0.61371149  0.73949218  0.58541600    -0.11410
C2519       C  0.63489323  0.73599619  0.60617156     0.03260
C2520       C  0.63173851  0.72962631  0.64873719    -0.10830
H2521       H  0.56814287  0.72847599  0.66639421     0.08850
H2522       H  0.61586075  0.74401504  0.55244082     0.06380
H2523       H  0.64843542  0.72768234  0.66522409     0.06230
C2524       C  0.60810069  0.72767575  0.85043316     0.03260
C2525       C  0.58643741  0.73005076  0.87178816    -0.12890
C2526       C  0.58901568  0.73572814  0.91459517     0.00760
C2527       C  0.61365870  0.73945172  0.93585672    -0.11410
C2528       C  0.63480670  0.73588885  0.91514469     0.03260
C2529       C  0.63165402  0.72951597  0.87258024    -0.10830
H2530       H  0.56815028  0.72853995  0.85480959     0.08850
H2531       H  0.61581096  0.74397919  0.96883004     0.06380
H2532       H  0.64833421  0.72753274  0.85612262     0.06230
C2533       C  0.87132890  0.61384171  0.85032813     0.03260
C2534       C  0.89472870  0.63518350  0.87308459    -0.12890
C2535       C  0.89205845  0.63815669  0.91574779     0.00760
C2536       C  0.86660829  0.61802696  0.93632831    -0.11410
C2537       C  0.84416064  0.59492355  0.91440706     0.03260
C2538       C  0.84622620  0.59348718  0.87127616    -0.10830
H2539       H  0.91433703  0.65063847  0.85701224     0.08850
H2540       H  0.86478390  0.61967447  0.96955776     0.06380
H2541       H  0.82815144  0.57671918  0.85395923     0.06230
C2542       C  0.87140487  0.61379445  0.67102391     0.03260
C2543       C  0.89479792  0.63512180  0.64824851    -0.12890
C2544       C  0.89209858  0.63809023  0.60558807     0.00760
C2545       C  0.86663652  0.61796478  0.58502629    -0.11410
C2546       C  0.84419860  0.59486668  0.60696432     0.03260
C2547       C  0.84629036  0.59343568  0.65009341    -0.10830
H2548       H  0.91441619  0.65058275  0.66430543     0.08850
H2549       H  0.86479276  0.61961760  0.55180018     0.06380
H2550       H  0.82822053  0.57667904  0.66742614     0.06230
C2551       C  0.87343799  0.75859232  0.67127588     0.03260
C2552       C  0.85127655  0.75957646  0.64918389    -0.12890
C2553       C  0.84888397  0.75523221  0.60621085     0.00760
C2554       C  0.86954403  0.75091318  0.58515427    -0.11410
C2555       C  0.89289570  0.75180969  0.60675623     0.03260
C2556       C  0.89452600  0.75531731  0.64989659    -0.10830
H2557       H  0.83507286  0.76224871  0.66582163     0.08850
H2558       H  0.86800607  0.74785819  0.55184056     0.06380
H2559       H  0.91182579  0.75484762  0.66699530     0.06230
C2560       C  0.87341221  0.75857205  0.85004269     0.03260
C2561       C  0.85126071  0.75957750  0.87211422    -0.12890
C2562       C  0.84886212  0.75522967  0.91508690     0.00760
C2563       C  0.86950293  0.75088335  0.93616393    -0.11410
C2564       C  0.89283984  0.75175383  0.91458181     0.03260
C2565       C  0.89447910  0.75526629  0.87144167    -0.10830
H2566       H  0.83506974  0.76226828  0.85546158     0.08850
H2567       H  0.86796390  0.74782910  0.96947825     0.06380
H2568       H  0.91177511  0.75478537  0.85435977     0.06230
C2569       C  0.72842122  0.61572950  0.85008405     0.03260
C2570       C  0.73290266  0.64061879  0.87112713    -0.12890
C2571       C  0.73699461  0.64283536  0.91417562     0.00760
C2572       C  0.73776266  0.62046472  0.93593841    -0.11410
C2573       C  0.73241274  0.59509836  0.91524513     0.03260
C2574       C  0.72691748  0.59253742  0.87254419    -0.10830
H2575       H  0.73366601  0.65844453  0.85389831     0.08850
H2576       H  0.74130496  0.62227174  0.96915913     0.06380
H2577       H  0.72318983  0.57318508  0.85625502     0.06230
C2578       C  0.72836145  0.61570335  0.67119293     0.03260
C2579       C  0.72683457  0.59250800  0.64872754    -0.12890
C2580       C  0.73232272  0.59507659  0.60602893     0.00760
C2581       C  0.73768337  0.62045050  0.58533915    -0.11410
C2582       C  0.73693438  0.64282713  0.60710816     0.03260
C2583       C  0.73285348  0.64060216  0.65015769    -0.10830
H2584       H  0.72310547  0.57314990  0.66501092     0.08850
H2585       H  0.74122575  0.62226028  0.55212017     0.06380
H2586       H  0.73363864  0.65843044  0.66739759     0.06230
O2587       O  0.76603057  0.82057666  0.59348781    -0.75160
O2588       O  0.72776420  0.81583373  0.55519261    -0.54070
C2589       C  0.74736362  0.82817225  0.58330786     0.78570
O2590       O  0.81568359  0.77188583  0.92658789    -0.59760
O2591       O  0.81266656  0.73505502  0.96637868    -0.52790
C2592       C  0.82420882  0.75407027  0.93752853     0.70580
O2593       O  0.76593458  0.82047542  0.92756516    -0.74320
O2594       O  0.72782247  0.81586870  0.96610146    -0.54880
C2595       C  0.74734019  0.82814066  0.93787078     0.76590
O2596       O  0.81572872  0.77191224  0.59464651    -0.59460
O2597       O  0.81263972  0.73501246  0.55495334    -0.52580
C2598       C  0.82422131  0.75406311  0.58375627     0.73180
Zr2599     Zr  0.77970387  0.78495142  0.57234176     2.54710
O2600       O  0.82523026  0.83075494  0.56841549    -0.80030
O2601       O  0.78009624  0.78524787  0.64784454    -0.93440
Zr2602     Zr  0.77974537  0.78501703  0.94900951     2.64680
O2603       O  0.82499329  0.83112793  0.95282416    -0.98400
O2604       O  0.78011725  0.78571034  0.87355254    -0.80460
O2605       O  0.76563200  0.79900509  0.51067528    -0.83820
O2606       O  0.79466819  0.77197927  0.51068353    -2.18530
O2607       O  0.72068047  0.67583876  0.59572169    -0.67210
O2608       O  0.75756114  0.67917862  0.55560564    -0.51770
C2609       C  0.73873577  0.66769208  0.58481750     0.71560
O2610       O  0.66872280  0.72080161  0.92757701    -0.60120
O2611       O  0.67189834  0.75837242  0.96568338    -0.52090
C2612       C  0.66008915  0.73857337  0.93771063     0.73370
O2613       O  0.72066844  0.67577317  0.92564185    -0.71510
O2614       O  0.75766536  0.67922581  0.96560964    -0.50190
C2615       C  0.73878505  0.66768634  0.93647170     0.74750
O2616       O  0.66889230  0.72099897  0.59387449    -0.66840
O2617       O  0.67188570  0.75838334  0.55549447    -0.54040
C2618       C  0.66017709  0.73868718  0.58361914     0.73130
Zr2619     Zr  0.70597308  0.70993538  0.57217971     2.77540
O2620       O  0.66101851  0.66352407  0.56862197    -0.97590
O2621       O  0.70530715  0.71019451  0.64761556    -0.78410
Zr2622     Zr  0.70605251  0.70999648  0.94891863     2.70070
O2623       O  0.66158093  0.66320479  0.95234367    -0.79660
O2624       O  0.70532302  0.71099528  0.87346465    -0.98740
Zr2625     Zr  0.71388085  0.77427991  0.51062837     2.21500
Zr2626     Zr  0.77111073  0.72038500  0.51061854     2.11130
O2627       O  0.71948858  0.69550225  0.51055256    -2.47430
O2628       O  0.69081503  0.72283914  0.51054073    -0.79450
O2629       O  0.75732229  0.73374170  0.57330546    -0.71650
O2630       O  0.72831871  0.76113045  0.94811562    -2.32600
O2631       O  0.72826858  0.76108159  0.57318095    -2.28810
O2632       O  0.75740231  0.73379910  0.94786488    -0.73410
H2633       H  0.81551859  0.78050536  0.51074706     0.78590
H2634       H  0.72182892  0.76711043  0.92407283     0.79680
H2635       H  0.71152706  0.67476718  0.51047810     0.81900
H2636       H  0.72178990  0.76706035  0.59722978     0.79510
H2637       H  0.75938285  0.77460254  0.86556199     0.42550
H2638       H  0.72492960  0.71518256  0.86498049     0.41520
H2639       H  0.65088453  0.66488407  0.97628971     0.41200
H2640       H  0.66637967  0.65027224  0.55487037     0.39130
H2641       H  0.72598623  0.72198099  0.65564210     0.42260
H2642       H  0.76069383  0.78185935  0.65592979     0.37040
H2643       H  0.82224383  0.84146751  0.54568451     0.43160
H2644       H  0.83869468  0.82671254  0.96738907     0.39580
H2645       H  0.65698814  0.65672779  0.59771575     0.44500
H2646       H  0.79362399  0.80568777  0.65544763     0.43220
H2647       H  0.83213254  0.83516830  0.92388632     0.43350
H2648       H  0.69228262  0.69058338  0.86521610     0.43710
O2649       O  0.54014617  0.81621142  0.92548647    -0.75160
O2650       O  0.57413513  0.81300289  0.96478702    -0.54070
C2651       C  0.56653603  0.82446765  0.93579897     0.78570
O2652       O  0.94234794  0.76762572  0.59521598    -0.59760
O2653       O  0.90832226  0.73082009  0.55545928    -0.52790
C2654       C  0.91595225  0.74983187  0.58440676     0.70580
O2655       O  0.54014772  0.81613669  0.59592729    -0.74320
O2656       O  0.57410414  0.81305837  0.55636912    -0.54880
C2657       C  0.56652913  0.82445803  0.58547377     0.76590
O2658       O  0.94228575  0.76762321  0.92618436    -0.59460
O2659       O  0.90827997  0.73072921  0.96584131    -0.52580
C2660       C  0.91589653  0.74978006  0.93694501     0.73180
Zr2661     Zr  0.99125129  0.78120199  0.94892900     2.54710
O2662       O  0.99166405  0.82691198  0.95473732    -0.80030
O2663       O  0.99014658  0.78233520  0.87347616    -0.93440
Zr2664     Zr  0.99130070  0.78132642  0.57217932     2.64680
O2665       O  0.99224329  0.82729907  0.56616605    -0.98400
O2666       O  0.99106288  0.78331910  0.64755819    -0.80460
O2667       O  0.51955140  0.79599409  0.51054182    -0.83820
O2668       O  0.96322182  0.76805065  0.51056388    -2.18530
O2669       O  0.94182057  0.67083337  0.92756525    -0.67210
O2670       O  0.90817397  0.67485133  0.96646534    -0.51770
C2671       C  0.91552214  0.66277897  0.93819927     0.71560
O2672       O  0.53955906  0.71933451  0.59443219    -0.60120
O2673       O  0.57358092  0.75690860  0.55568244    -0.52090
C2674       C  0.56593621  0.73749625  0.58411863     0.73370
O2675       O  0.94184043  0.67072714  0.59367231    -0.71510
O2676       O  0.90817042  0.67488016  0.55501026    -0.50190
C2677       C  0.91553675  0.66272845  0.58314328     0.74750
O2678       O  0.53954270  0.71944813  0.92670782    -0.66840
O2679       O  0.57357969  0.75687400  0.96564545    -0.54040
C2680       C  0.56592471  0.73753972  0.93709931     0.73130
Zr2681     Zr  0.99085908  0.70680094  0.94911922     2.77540
O2682       O  0.99140591  0.66144857  0.95141942    -0.97590
O2683       O  0.99046725  0.70754982  0.87368593    -0.78410
Zr2684     Zr  0.99086191  0.70693718  0.57245726     2.70070
O2685       O  0.99070290  0.66123420  0.57134014    -0.79660
O2686       O  0.99112129  0.70896627  0.64787654    -0.98740
Zr2687     Zr  0.54696679  0.77182646  0.51061202     2.21500
Zr2688     Zr  0.93546897  0.71648266  0.51070692     2.11130
O2689       O  0.96293125  0.69235180  0.51078830    -2.47430
O2690       O  0.51903815  0.72024509  0.51078068    -0.79450
O2691       O  0.96273952  0.72994667  0.94803277    -0.71650
O2692       O  0.51926364  0.75807728  0.57305330    -2.32600
O2693       O  0.51923372  0.75796485  0.94815490    -2.28810
O2694       O  0.96272311  0.73006330  0.57343116    -0.73410
H2695       H  0.95074899  0.77636974  0.51049571     0.78590
H2696       H  0.53167238  0.76414427  0.59717960     0.79680
H2697       H  0.95039527  0.67157176  0.51084923     0.81900
H2698       H  0.53161824  0.76401718  0.92400842     0.79510
H2699       H  0.49989729  0.77171784  0.65658248     0.42550
H2700       H  0.97468459  0.71190080  0.65503751     0.41520
H2701       H  0.50039506  0.66165116  0.54494973     0.41200
H2702       H  0.97377258  0.64799578  0.96719751     0.39130
H2703       H  0.98055534  0.71850658  0.86663564     0.42260
H2704       H  0.50610530  0.77916915  0.86436381     0.37040
H2705       H  0.50812095  0.83884552  0.97351038     0.43160
H2706       H  0.97303813  0.82223255  0.55460928     0.39580
H2707       H  0.98717347  0.65411607  0.92258931     0.44500
H2708       H  0.99686924  0.80281500  0.86646951     0.43220
H2709       H  0.99163412  0.83304717  0.59516713     0.43350
H2710       H  0.98477783  0.68891210  0.65687374     0.43710
O2711       O  0.76374603  0.94752760  0.92739237    -0.75160
O2712       O  0.72577634  0.91352688  0.96559356    -0.54070
C2713       C  0.74552203  0.92114467  0.93752801     0.78570
O2714       O  0.81068774  0.54540329  0.59578638    -0.59760
O2715       O  0.80795251  0.57914825  0.55546450    -0.52790
C2716       C  0.81919626  0.57170029  0.58478831     0.70580
O2717       O  0.76366275  0.94752234  0.59410618    -0.74320
O2718       O  0.72583517  0.91355076  0.55563729    -0.54880
C2719       C  0.74550255  0.92114757  0.58383066     0.76590
O2720       O  0.81073511  0.54544920  0.92566277    -0.59460
O2721       O  0.80788822  0.57918111  0.96585882    -0.52580
C2722       C  0.81918039  0.57174458  0.93659717     0.73180
Zr2723     Zr  0.77609162  0.99634397  0.94890856     2.54710
O2724       O  0.82243345  0.99780354  0.95397375    -0.80030
O2725       O  0.77719500  0.49629232  0.87341526    -0.93440
Zr2726     Zr  0.77615172  0.99630998  0.57232318     2.64680
O2727       O  0.82227115  0.99723661  0.56760917    -0.98400
O2728       O  0.77710281  0.49558747  0.64775510    -0.80460
O2729       O  0.76258657  0.96825621  0.51060223    -0.83820
O2730       O  0.79087831  0.52429249  0.51061551    -2.18530
O2731       O  0.71524918  0.54540910  0.92684883    -0.67210
O2732       O  0.75250739  0.57893332  0.96645680    -0.51770
C2733       C  0.73338351  0.57163527  0.93773810     0.71560
O2734       O  0.66373477  0.94816455  0.59112046    -0.60120
O2735       O  0.66857821  0.91410105  0.55471531    -0.52090
C2736       C  0.65573500  0.92182172  0.58140085     0.73370
O2737       O  0.71511609  0.54539256  0.59434817    -0.71510
O2738       O  0.75253079  0.57893192  0.55498406    -0.50190
C2739       C  0.73331468  0.57162346  0.58356001     0.74750
O2740       O  0.66386118  0.94812796  0.92995778    -0.66840
O2741       O  0.66855721  0.91406352  0.96660085    -0.54040
C2742       C  0.65579465  0.92178459  0.93977300     0.73130
Zr2743     Zr  0.70186159  0.99652452  0.94906939     2.77540
O2744       O  0.65651409  0.99731414  0.94940202    -0.97590
O2745       O  0.70328141  0.99505291  0.87372576    -0.78410
Zr2746     Zr  0.70198002  0.99653274  0.57240515     2.70070
O2747       O  0.65707889  0.99811592  0.57286474    -0.79660
O2748       O  0.70380509  0.99453386  0.64768367    -0.98740
Zr2749     Zr  0.71093634  0.94048188  0.51062841     2.21500
Zr2750     Zr  0.76669532  0.55168023  0.51070638     2.11130
O2751       O  0.71506115  0.52435879  0.51074112    -2.47430
O2752       O  0.68748385  0.96855352  0.51073406    -0.79450
O2753       O  0.75315265  0.52464027  0.94795930    -0.71650
O2754       O  0.72475013  0.96806475  0.57321335    -2.32600
O2755       O  0.72468182  0.96808669  0.94803686    -2.28810
O2756       O  0.75326732  0.52466875  0.57350272    -0.73410
H2757       H  0.81169303  0.53689781  0.51054108     0.78590
H2758       H  0.71833330  0.95555088  0.59721425     0.79680
H2759       H  0.70678089  0.53685510  0.51079859     0.81900
H2760       H  0.71827407  0.95559543  0.92401293     0.79510
H2761       H  0.75641498  0.98490569  0.65604894     0.42550
H2762       H  0.72299414  0.51112367  0.65528110     0.41520
H2763       H  0.64879681  0.99141419  0.54486240     0.41200
H2764       H  0.66074787  0.51476908  0.96558986     0.39130
H2765       H  0.72418463  0.50642737  0.86674279     0.42260
H2766       H  0.75819232  0.97974097  0.86505025     0.37040
H2767       H  0.81941788  0.98356373  0.97589127     0.43160
H2768       H  0.83589328  0.51628249  0.55518874     0.39580
H2769       H  0.65424559  0.00214504  0.92051544     0.44500
H2770       H  0.79145899  0.99021861  0.86630510     0.43220
H2771       H  0.82880689  0.99883975  0.59671987     0.43350
H2772       H  0.68965652  0.00011515  0.65747246     0.43710
C2773       C  0.74986176  0.61348243  0.73888615    -0.01710
C2774       C  0.72758786  0.61481115  0.71698005     0.07970
C2775       C  0.70530366  0.61610845  0.73883680    -0.01830
C2776       C  0.70532402  0.61612731  0.78245142    -0.01830
C2777       C  0.72762327  0.61483726  0.80429578     0.08100
C2778       C  0.74988006  0.61349648  0.78237434    -0.02030
Br2779     Br  0.78149267  0.61320884  0.81164460    -0.00570
Br2780     Br  0.78144271  0.61316372  0.70959203    -0.00650
Br2781     Br  0.67437237  0.61720267  0.81216835    -0.00610
Br2782     Br  0.67431118  0.61712891  0.70913062    -0.00590
C2783       C  0.85107018  0.73544529  0.78240799    -0.01710
C2784       C  0.87339751  0.75898817  0.80428234     0.07970
C2785       C  0.89585128  0.78241371  0.78246759    -0.01830
C2786       C  0.89585426  0.78242138  0.73887274    -0.01830
C2787       C  0.87341064  0.75899726  0.71703721     0.08100
C2788       C  0.85107910  0.73544755  0.73889257    -0.02030
Br2789     Br  0.82105705  0.70243801  0.70935583    -0.00570
Br2790     Br  0.82102902  0.70243970  0.81192248    -0.00650
Br2791     Br  0.92624447  0.81485631  0.70909296    -0.00610
Br2792     Br  0.92625349  0.81482471  0.81227560    -0.00590
C2793       C  0.86891586  0.58953311  0.73889820    -0.01710
C2794       C  0.87247745  0.61401118  0.71692291     0.07970
C2795       C  0.87620635  0.63858811  0.73888393    -0.01830
C2796       C  0.87616417  0.63858957  0.78240941    -0.01830
C2797       C  0.87240684  0.61402041  0.80443031     0.08100
C2798       C  0.86887599  0.58953527  0.78251471    -0.02030
Br2799     Br  0.86480436  0.55614627  0.81202467    -0.00570
Br2800     Br  0.86492869  0.55615618  0.70946605    -0.00650
Br2801     Br  0.87960612  0.67197653  0.81141783    -0.00610
Br2802     Br  0.87974151  0.67198995  0.70978976    -0.00590
C2803       C  0.62875862  0.75133976  0.78242027    -0.01710
C2804       C  0.60803372  0.72682513  0.80444841     0.07970
C2805       C  0.58730217  0.70220954  0.78250856    -0.01830
C2806       C  0.58731427  0.70222114  0.73873544    -0.01830
C2807       C  0.60805598  0.72685026  0.71683119     0.08100
C2808       C  0.62876828  0.75135346  0.73889835    -0.02030
Br2809     Br  0.65665796  0.78552223  0.70944620    -0.00570
Br2810     Br  0.65664270  0.78548371  0.81193076    -0.00650
Br2811     Br  0.55953022  0.66830031  0.70872988    -0.00610
Br2812     Br  0.55949672  0.66827782  0.81246883    -0.00530
C2813       C  0.58013923  0.87411454  0.78250933    -0.01710
C2814       C  0.60616354  0.88299671  0.80485650     0.07970
C2815       C  0.63257390  0.89409348  0.78244756    -0.01830
C2816       C  0.63257749  0.89411304  0.73875421    -0.01830
C2817       C  0.60617078  0.88302140  0.71633457     0.08100
C2818       C  0.58014057  0.87411634  0.73866276    -0.02030
Br2819     Br  0.54450165  0.86365559  0.70944213    -0.00570
Br2820     Br  0.54451146  0.86370444  0.81169571    -0.00650
Br2821     Br  0.66953398  0.90890121  0.71070735    -0.00610
Br2822     Br  0.66952975  0.90883864  0.81049571    -0.00590
C2823       C  0.78110776  0.88465041  0.78254180    -0.01710
C2824       C  0.75587494  0.87902127  0.80445886     0.07970
C2825       C  0.73042253  0.87228937  0.78241339    -0.01830
C2826       C  0.73041440  0.87226660  0.73885823    -0.01830
C2827       C  0.75585191  0.87894584  0.71682189     0.08100
C2828       C  0.78109311  0.88460190  0.73875375    -0.02030
Br2829     Br  0.81553877  0.89228631  0.70875349    -0.00570
Br2830     Br  0.81558221  0.89243078  0.81256633    -0.00650
Br2831     Br  0.69504981  0.86138338  0.70911792    -0.00610
Br2832     Br  0.69505613  0.86136864  0.81214866    -0.00590
loop_ 
_geom_bond_atom_site_label_1 
_geom_bond_atom_site_label_2 
_geom_bond_distance 
_geom_bond_site_symmetry_2 
_ccdc_geom_bond_type 
C1            C2   1.405       .  A
C1            C6   1.401       .  A
C1          C349   1.485       .  S
C2            C3   1.407       .  A
C2            H7   1.084       .  S
C3            C4   1.406       .  A
C3          C241   1.480       .  S
C4            C5   1.407       .  A
C4            H8   1.084       .  S
C5            C6   1.405       .  A
C5          C111   1.476       .  S
C6            H9   1.084       .  S
C10          C11   1.405       .  A
C10          C15   1.401       .  A
C10         C346   1.485       .  S
C11          C12   1.407       .  A
C11          H16   1.084       .  S
C12          C13   1.406       .  A
C12         C235   1.480       .  S
C13          C14   1.407       .  A
C13          H17   1.084       .  S
C14          C15   1.404       .  A
C14         C117   1.476       .  S
C15          H18   1.084       .  S
C19          C20   1.405       .  A
C19          C24   1.410       .  A
C19         C336   1.503       .  S
C20          C21   1.405       .  A
C20          H25   1.083       .  S
C21          C22   1.401       .  A
C21         C264   1.475       .  S
C22          C23   1.401       .  A
C22          H26   1.084       .  S
C23          C24   1.409       .  A
C23         C173   1.475       .  S
C24          H27   1.083       .  S
C28          C29   1.405       .  A
C28          C33   1.410       .  A
C28         C339   1.503       .  S
C29          C30   1.405       .  A
C29          H34   1.083       .  S
C30          C31   1.401       .  A
C30         C258   1.475       .  S
C31          C32   1.401       .  A
C31          H35   1.084       .  S
C32          C33   1.408       .  A
C32         C179   1.475       .  S
C33          H36   1.083       .  S
C37          C38   1.403       .  A
C37          C42   1.403       .  A
C37         C329   1.484       .  S
C38          C39   1.406       .  A
C38          H43   1.084       .  S
C39          C40   1.403       .  A
C39         C196   1.472       .  S
C40          C41   1.402       .  A
C40          H44   1.084       .  S
C41          C42   1.404       .  A
C41         C140   1.472       .  S
C42          H45   1.084       .  S
C46          C47   1.403       .  A
C46          C51   1.403       .  A
C46         C326   1.484       .  S
C47          C48   1.406       .  A
C47          H52   1.084       .  S
C48          C49   1.403       .  A
C48         C202   1.472       .  S
C49          C50   1.402       .  A
C49          H53   1.084       .  S
C50          C51   1.404       .  A
C50         C134   1.472       .  S
C51          H54   1.084       .  S
C55          C56   1.402       .  A
C55          C60   1.403       .  A
C55         C319   1.482       .  S
C56          C57   1.401       .  A
C56          H61   1.084       .  S
C57          C58   1.404       .  A
C57         C193   1.472       .  S
C58          C59   1.404       .  A
C58          H62   1.084       .  S
C59          C60   1.401       .  A
C59         C244   1.470       .  S
C60          H63   1.084       .  S
C64          C65   1.402       .  A
C64          C69   1.403       .  A
C64         C316   1.482       .  S
C65          C66   1.401       .  A
C65          H70   1.084       .  S
C66          C67   1.404       .  A
C66         C199   1.471       .  S
C67          C68   1.404       .  A
C67          H71   1.084       .  S
C68          C69   1.401       .  A
C68         C238   1.470       .  S
C69          H72   1.084       .  S
C73          C74   1.401       .  A
C73          C78   1.401       .  A
C73         C309   1.476       .  S
C74          C75   1.401       .  A
C74          H79   1.084       .  S
C75          C76   1.406       .  A
C75         C120   1.473       .  S
C76          C77   1.405       .  A
C76          H80   1.084       .  S
C77          C78   1.401       .  A
C77         C176   1.472       .  S
C78          H81   1.084       .  S
C82          C83   1.401       .  A
C82          C87   1.401       .  A
C82         C306   1.476       .  S
C83          C84   1.401       .  A
C83          H88   1.084       .  S
C84          C85   1.406       .  A
C84         C114   1.473       .  S
C85          C86   1.404       .  A
C85          H89   1.084       .  S
C86          C87   1.401       .  A
C86         C182   1.472       .  S
C87          H90   1.084       .  S
C91          C92   1.401       .  A
C91          C96   1.401       .  A
C91         C299   1.478       .  S
C92          C93   1.402       .  A
C92          H97   1.084       .  S
C93          C94   1.402       .  A
C93         C137   1.469       .  S
C94          C95   1.404       .  A
C94          H98   1.084       .  S
C95          C96   1.401       .  A
C95         C255   1.470       .  S
C96          H99   1.084       .  S
C100        C101   1.401       .  A
C100        C105   1.401       .  A
C100        C296   1.478       .  S
C101        C102   1.401       .  A
C101        H106   1.084       .  S
C102        C103   1.404       .  A
C102        C261   1.470       .  S
C103        C104   1.403       .  A
C103        H107   1.084       .  S
C104        C105   1.402       .  A
C104        C131   1.469       .  S
C105        H108   1.084       .  S
O109       Zr121   2.448       .  S
O109        C111   1.289       .  A
O110       Zr147   2.426       .  S
O110        C111   1.287       .  A
O112       Zr124   2.453       .  S
O112        C114   1.291       .  A
O113       Zr502   2.410       .  S
O113        C114   1.284       .  A
O115       Zr124   2.447       .  S
O115        C117   1.290       .  A
O116       Zr501   2.426       .  S
O116        C117   1.287       .  A
O118       Zr121   2.452       .  S
O118        C120   1.291       .  A
O119       Zr148   2.411       .  S
O119        C120   1.284       .  A
Zr121       O122   2.434       .  S
Zr121       O123   2.436       .  S
Zr121       O127   2.375       .  S
Zr121       O128   2.371       .  S
Zr121       O151   2.371       .  S
Zr121       O153   2.372       .  S
O122        H165   0.990       .  S
O123        H164   0.990       .  S
O123        H168   0.990       .  S
Zr124       O125   2.435       .  S
Zr124       O126   2.435       .  S
Zr124       O152   2.371       .  S
Zr124       O154   2.371       .  S
Zr124       O482   2.372       .  S
Zr124       O481   2.375       .  S
O125        H166   0.990       .  S
O125        H169   0.990       .  S
O126        H159   0.990       .  S
O127       Zr147   2.385       .  S
O127       Zr478   2.375   1_554  S
O128       Zr148   2.385       .  S
O128       Zr478   2.372   1_554  S
O128        H155   0.966       .  S
O129       Zr141   2.434       .  S
O129        C131   1.286       .  A
O130       Zr148   2.422       .  S
O130        C131   1.286       .  A
O132       Zr144   2.429       .  S
O132        C134   1.286       .  A
O133       Zr501   2.432       .  S
O133        C134   1.288       .  A
O135       Zr144   2.434       .  S
O135        C137   1.286       .  A
O136       Zr502   2.422       .  S
O136        C137   1.285       .  A
O138       Zr141   2.429       .  S
O138        C140   1.286       .  A
O139       Zr147   2.432       .  S
O139        C140   1.288       .  A
Zr141       O142   2.435       .  S
Zr141       O143   2.434       .  S
Zr141       O149   2.370       .  S
Zr141       O150   2.374       .  S
Zr141       O153   2.368       .  S
Zr141       O151   2.368       .  S
O142        H162   0.990       .  S
O142        H167   0.990       .  S
O143        H163   0.990       .  S
Zr144       O145   2.434       .  S
Zr144       O146   2.436       .  S
Zr144       O154   2.368       .  S
Zr144       O152   2.367       .  S
Zr144       O504   2.374       .  S
Zr144       O503   2.370       .  S
O145        H161   0.990       .  S
O146        H160   0.990       .  S
O146        H170   0.990       .  S
Zr147       O470   2.426   1_554  S
Zr147       O487   2.432   1_554  S
Zr147       O150   2.379       .  S
Zr147       O153   2.386       .  S
Zr147       O506   2.386   1_554  S
Zr148       O467   2.410   1_554  S
Zr148       O490   2.422   1_554  S
Zr148       O149   2.378       .  S
Zr148       O151   2.379       .  S
Zr148       O508   2.380   1_554  S
O149       Zr498   2.370   1_554  S
O149        H157   0.966       .  S
O150       Zr498   2.374   1_554  S
O152       Zr501   2.386       .  S
O152        H156   0.966       .  S
O153        H158   0.966       .  S
O154       Zr502   2.380       .  S
O171      Zr1599   2.442   1_455  S
O171        C173   1.288       .  A
O172       Zr563   2.433       .  S
O172        C173   1.288       .  A
O174       Zr186   2.443       .  S
O174        C176   1.288       .  A
O175       Zr210   2.422       .  S
O175        C176   1.286       .  A
O177      Zr1602   2.441   1_455  S
O177        C179   1.288       .  A
O178       Zr209   2.433       .  S
O178        C179   1.288       .  A
O180       Zr183   2.442       .  S
O180        C182   1.288       .  A
O181       Zr564   2.422       .  S
O181        C182   1.286       .  A
Zr183      O1587   2.442       .  S
Zr183       O184   2.434       .  S
Zr183       O185   2.436       .  S
Zr183       O213   2.371       .  S
Zr183      O1959   2.377       .  S
Zr183       O544   2.371       .  S
Zr183      O1631   2.368       .  S
O184       H1643   0.990       .  S
O185        H230   0.990       .  S
O185       H1642   0.990       .  S
Zr186      O1593   2.441       .  S
Zr186       O187   2.435       .  S
Zr186       O188   2.434       .  S
Zr186       O190   2.372       .  S
Zr186       O216   2.371       .  S
Zr186      O1605   2.377       .  S
Zr186      O1630   2.367       .  S
O187        H228   0.990       .  S
O187        H231   0.990       .  S
O188       H1637   0.990       .  S
O189       Zr209   2.382       .  S
O189      Zr1953   2.377   1_454  S
O189      Zr1602   2.377   1_455  S
O190       Zr210   2.382       .  S
O190       Zr537   2.371   1_554  S
O190        H217   0.966       .  S
O191       Zr203   2.441       .  S
O191        C193   1.288       .  A
O192       Zr564   2.418       .  S
O192        C193   1.285       .  A
O194      Zr1622   2.437   1_455  S
O194        C196   1.287       .  A
O195       Zr209   2.425       .  S
O195        C196   1.287       .  A
O197       Zr206   2.441       .  S
O197        C199   1.288       .  A
O198       Zr210   2.418       .  S
O198        C199   1.285       .  A
O200      Zr1619   2.438   1_455  S
O200        C202   1.287       .  A
O201       Zr563   2.425       .  S
O201        C202   1.287       .  A
Zr203      O1616   2.438       .  S
Zr203       O204   2.435       .  S
Zr203       O205   2.434       .  S
Zr203       O213   2.370       .  S
Zr203       O565   2.370       .  S
Zr203      O1982   2.375       .  S
Zr203      O1631   2.366       .  S
O204        H224   0.990       .  S
O204        H229   0.990       .  S
O205        H225   0.990       .  S
Zr206      O1610   2.437       .  S
Zr206       O207   2.434       .  S
Zr206       O208   2.435       .  S
Zr206       O211   2.369       .  S
Zr206       O216   2.370       .  S
Zr206      O1628   2.376       .  S
Zr206      O1630   2.365       .  S
O207       H1639   0.990       .  S
O208        H222   0.990       .  S
O208        H232   0.990       .  S
Zr209       O526   2.433   1_554  S
Zr209       O555   2.425   1_554  S
Zr209       O212   2.383       .  S
Zr209       O214   2.385       .  S
Zr209       O569   2.386   1_554  S
Zr210       O535   2.422   1_554  S
Zr210       O546   2.418   1_554  S
Zr210       O211   2.383       .  S
Zr210       O216   2.381       .  S
Zr210       O567   2.381   1_554  S
O211       Zr557   2.370   1_554  S
O211        H219   0.966       .  S
O212      Zr1973   2.375   1_454  S
O212      Zr1622   2.376   1_455  S
O213       Zr564   2.381       .  S
O214      Zr1602   2.367   1_455  S
O214      Zr1622   2.365   1_455  S
O214        H218   0.966       .  S
O215      Zr1599   2.368   1_455  S
O215      Zr1619   2.366   1_455  S
O215       Zr563   2.386       .  S
O215        H220   0.966       .  S
H221       O1604   0.990       .  S
H223       O1623   0.990   1_455  S
H226       O1601   0.990   1_455  S
H227       O1600   0.990   1_455  S
O233       Zr245   2.445       .  S
O233        C235   1.288       .  A
O234       Zr625   2.437       .  S
O234        C235   1.289       .  A
O236       Zr956   2.446   1_545  S
O236        C238   1.289       .  A
O237       Zr272   2.414       .  S
O237        C238   1.284       .  A
O239       Zr248   2.444       .  S
O239        C241   1.289       .  A
O240       Zr271   2.437       .  S
O240        C241   1.289       .  A
O242       Zr953   2.446   1_545  S
O242        C244   1.289       .  A
O243       Zr626   2.415       .  S
O243        C244   1.284       .  A
Zr245       O950   2.446       .  S
Zr245       O246   2.434       .  S
Zr245       O955   2.436       .  S
Zr245       O277   2.372       .  S
Zr245       O605   2.376       .  S
Zr245      O1314   2.373       .  S
Zr245       O983   2.370       .  S
O246        H289   0.990       .  S
O247       Zr953   2.436       .  S
O247        H996   0.990       .  S
O247       H1000   0.990       .  S
Zr248       O944   2.446       .  S
Zr248       O249   2.435       .  S
Zr248       O958   2.435       .  S
Zr248       O251   2.375       .  S
Zr248       O276   2.372       .  S
Zr248       O960   2.373       .  S
Zr248       O986   2.371       .  S
O249        H293   0.990       .  S
O249        H998   0.990       .  S
O250       Zr956   2.435       .  S
O250        H991   0.990       .  S
O251       Zr271   2.382       .  S
O251       Zr599   2.376   1_554  S
O252       Zr272   2.382       .  S
O252      Zr1307   2.373   1_544  S
O252       Zr956   2.373   1_545  S
O252        H279   0.966       .  S
O253       Zr973   2.441   1_545  S
O253        C255   1.288       .  A
O254       Zr626   2.413       .  S
O254        C255   1.284       .  A
O256       Zr268   2.429       .  S
O256        C258   1.286       .  A
O257       Zr271   2.431       .  S
O257        C258   1.289       .  A
O259       Zr976   2.440   1_545  S
O259        C261   1.288       .  A
O260       Zr272   2.413       .  S
O260        C261   1.284       .  A
O262       Zr265   2.430       .  S
O262        C264   1.286       .  A
O263       Zr625   2.430       .  S
O263        C264   1.288       .  A
Zr265       O961   2.441       .  S
Zr265       O266   2.435       .  S
Zr265       O267   2.434       .  S
Zr265       O277   2.371       .  S
Zr265      O1335   2.369       .  S
Zr265       O628   2.372       .  S
Zr265       O983   2.367       .  S
O266        H291   0.990       .  S
O266        H994   0.990       .  S
O267        H995   0.990       .  S
Zr268       O967   2.440       .  S
Zr268       O269   2.433       .  S
Zr268       O270   2.435       .  S
Zr268       O274   2.372       .  S
Zr268       O276   2.371       .  S
Zr268       O981   2.368       .  S
Zr268       O986   2.367       .  S
O269        H285   0.990       .  S
O270        H294   0.990       .  S
O270        H992   0.990       .  S
Zr271       O588   2.437   1_554  S
Zr271       O617   2.430   1_554  S
Zr271       O274   2.382       .  S
Zr271       O276   2.387       .  S
Zr271       O631   2.388   1_554  S
Zr272       O597   2.415   1_554  S
Zr272       O608   2.413   1_554  S
Zr272       O273   2.380       .  S
Zr272       O278   2.379       .  S
Zr272       O629   2.378   1_554  S
O273      Zr1327   2.369   1_544  S
O273       Zr976   2.368   1_545  S
O273        H281   0.966       .  S
O274       Zr619   2.372   1_554  S
O275       Zr953   2.370   1_545  S
O275       Zr973   2.367   1_545  S
O275       Zr626   2.378       .  S
O276        H280   0.966       .  S
O277       Zr625   2.388       .  S
O277        H282   0.966       .  S
O278       Zr956   2.371   1_545  S
O278       Zr976   2.367   1_545  S
H283        O958   0.990       .  S
H284        O978   0.990   1_545  S
H286        O974   0.990   1_545  S
H287        O975   0.990   1_545  S
H288        O955   0.990       .  S
H290        O957   0.990   1_545  S
H292        O955   0.990       .  S
C295        C296   1.412       .  A
C295        C300   1.403       .  A
C295       Br302   1.936       .  S
C296        C297   1.411       .  A
C297        C298   1.407       .  A
C297       Br304   1.932       .  S
C298        C299   1.411       .  A
C298       Br303   1.932       .  S
C299        C300   1.412       .  A
C300       Br301   1.936       .  S
C305        C306   1.411       .  A
C305        C310   1.404       .  A
C305       Br312   1.934       .  S
C306        C307   1.410       .  A
C307        C308   1.406       .  A
C307       Br314   1.931       .  S
C308        C309   1.410       .  A
C308       Br313   1.931       .  S
C309        C310   1.411       .  A
C310       Br311   1.934       .  S
C315        C316   1.412       .  A
C315        C320   1.407       .  A
C315       Br322   1.933       .  S
C316        C317   1.414       .  A
C317        C318   1.404       .  A
C317       Br324   1.938       .  S
C318        C319   1.414       .  A
C318       Br323   1.938       .  S
C319        C320   1.412       .  A
C320       Br321   1.933       .  S
C325        C326   1.409       .  A
C325        C330   1.404       .  A
C325       Br332   1.928       .  S
C326        C327   1.411       .  A
C327        C328   1.412       .  A
C327       Br334   1.928       .  S
C328        C329   1.411       .  A
C328       Br333   1.928       .  S
C329        C330   1.409       .  A
C330       Br331   1.928       .  S
C335        C336   1.416       .  A
C335        C340   1.415       .  A
C335       Br342   1.933       .  S
C336        C337   1.420       .  A
C337        C338   1.410       .  A
C337       Br344   1.938       .  S
C338        C339   1.420       .  A
C338       Br343   1.938       .  S
C339        C340   1.416       .  A
C340       Br341   1.933       .  S
C345        C346   1.411       .  A
C345        C350   1.413       .  A
C345       Br352   1.927       .  S
C346        C347   1.408       .  A
C347        C348   1.405       .  A
C347       Br354   1.925       .  S
C348        C349   1.408       .  A
C348       Br353   1.925       .  S
C349        C350   1.411       .  A
C350       Br351   1.927       .  S
C355        C356   1.405       .  A
C355        C360   1.401       .  A
C355        C703   1.485       .  S
C356        C357   1.407       .  A
C356        H361   1.084       .  S
C357        C358   1.406       .  A
C357        C595   1.480       .  S
C358        C359   1.407       .  A
C358        H362   1.084       .  S
C359        C360   1.405       .  A
C359        C465   1.476       .  S
C360        H363   1.084       .  S
C364        C365   1.405       .  A
C364        C369   1.401       .  A
C364        C700   1.485       .  S
C365        C366   1.407       .  A
C365        H370   1.084       .  S
C366        C367   1.406       .  A
C366        C589   1.480       .  S
C367        C368   1.407       .  A
C367        H371   1.084       .  S
C368        C369   1.404       .  A
C368        C471   1.476       .  S
C369        H372   1.084       .  S
C373        C374   1.405       .  A
C373        C378   1.410       .  A
C373        C690   1.503       .  S
C374        C375   1.405       .  A
C374        H379   1.083       .  S
C375        C376   1.401       .  A
C375        C618   1.475       .  S
C376        C377   1.401       .  A
C376        H380   1.084       .  S
C377        C378   1.409       .  A
C377        C527   1.475       .  S
C378        H381   1.083       .  S
C382        C383   1.405       .  A
C382        C387   1.410       .  A
C382        C693   1.503       .  S
C383        C384   1.405       .  A
C383        H388   1.083       .  S
C384        C385   1.401       .  A
C384        C612   1.475       .  S
C385        C386   1.401       .  A
C385        H389   1.084       .  S
C386        C387   1.408       .  A
C386        C533   1.475       .  S
C387        H390   1.083       .  S
C391        C392   1.403       .  A
C391        C396   1.403       .  A
C391        C683   1.484       .  S
C392        C393   1.406       .  A
C392        H397   1.084       .  S
C393        C394   1.403       .  A
C393        C550   1.472       .  S
C394        C395   1.402       .  A
C394        H398   1.084       .  S
C395        C396   1.404       .  A
C395        C494   1.472       .  S
C396        H399   1.084       .  S
C400        C401   1.403       .  A
C400        C405   1.403       .  A
C400        C680   1.484       .  S
C401        C402   1.406       .  A
C401        H406   1.084       .  S
C402        C403   1.403       .  A
C402        C556   1.472       .  S
C403        C404   1.402       .  A
C403        H407   1.084       .  S
C404        C405   1.404       .  A
C404        C488   1.472       .  S
C405        H408   1.084       .  S
C409        C410   1.402       .  A
C409        C414   1.403       .  A
C409        C673   1.482       .  S
C410        C411   1.401       .  A
C410        H415   1.084       .  S
C411        C412   1.404       .  A
C411        C547   1.472       .  S
C412        C413   1.404       .  A
C412        H416   1.084       .  S
C413        C414   1.401       .  A
C413        C598   1.470       .  S
C414        H417   1.084       .  S
C418        C419   1.402       .  A
C418        C423   1.403       .  A
C418        C670   1.482       .  S
C419        C420   1.401       .  A
C419        H424   1.084       .  S
C420        C421   1.404       .  A
C420        C553   1.471       .  S
C421        C422   1.404       .  A
C421        H425   1.084       .  S
C422        C423   1.401       .  A
C422        C592   1.470       .  S
C423        H426   1.084       .  S
C427        C428   1.401       .  A
C427        C432   1.401       .  A
C427        C663   1.476       .  S
C428        C429   1.401       .  A
C428        H433   1.084       .  S
C429        C430   1.406       .  A
C429        C474   1.473       .  S
C430        C431   1.405       .  A
C430        H434   1.084       .  S
C431        C432   1.401       .  A
C431        C530   1.472       .  S
C432        H435   1.084       .  S
C436        C437   1.401       .  A
C436        C441   1.401       .  A
C436        C660   1.476       .  S
C437        C438   1.401       .  A
C437        H442   1.084       .  S
C438        C439   1.406       .  A
C438        C468   1.473       .  S
C439        C440   1.404       .  A
C439        H443   1.084       .  S
C440        C441   1.401       .  A
C440        C536   1.472       .  S
C441        H444   1.084       .  S
C445        C446   1.401       .  A
C445        C450   1.401       .  A
C445        C653   1.478       .  S
C446        C447   1.402       .  A
C446        H451   1.084       .  S
C447        C448   1.402       .  A
C447        C491   1.469       .  S
C448        C449   1.404       .  A
C448        H452   1.084       .  S
C449        C450   1.401       .  A
C449        C609   1.470       .  S
C450        H453   1.084       .  S
C454        C455   1.401       .  A
C454        C459   1.401       .  A
C454        C650   1.478       .  S
C455        C456   1.401       .  A
C455        H460   1.084       .  S
C456        C457   1.404       .  A
C456        C615   1.470       .  S
C457        C458   1.403       .  A
C457        H461   1.084       .  S
C458        C459   1.402       .  A
C458        C485   1.469       .  S
C459        H462   1.084       .  S
O463       Zr475   2.448       .  S
O463        C465   1.289       .  A
O464       Zr501   2.426       .  S
O464        C465   1.287       .  A
O466       Zr478   2.453       .  S
O466        C468   1.291       .  A
O467        C468   1.284       .  A
O469       Zr478   2.447       .  S
O469        C471   1.290       .  A
O470        C471   1.287       .  A
O472       Zr475   2.452       .  S
O472        C474   1.291       .  A
O473       Zr502   2.411       .  S
O473        C474   1.284       .  A
Zr475       O476   2.434       .  S
Zr475       O477   2.436       .  S
Zr475       O481   2.375       .  S
Zr475       O482   2.371       .  S
Zr475       O505   2.371       .  S
Zr475       O507   2.372       .  S
O476        H519   0.990       .  S
O477        H518   0.990       .  S
O477        H522   0.990       .  S
Zr478       O479   2.435       .  S
Zr478       O480   2.435       .  S
Zr478       O506   2.371       .  S
Zr478       O508   2.371       .  S
O479        H520   0.990       .  S
O479        H523   0.990       .  S
O480        H513   0.990       .  S
O481       Zr501   2.385       .  S
O482       Zr502   2.385       .  S
O482        H509   0.966       .  S
O483       Zr495   2.434       .  S
O483        C485   1.286       .  A
O484       Zr502   2.422       .  S
O484        C485   1.286       .  A
O486       Zr498   2.429       .  S
O486        C488   1.286       .  A
O487        C488   1.288       .  A
O489       Zr498   2.434       .  S
O489        C491   1.286       .  A
O490        C491   1.285       .  A
O492       Zr495   2.429       .  S
O492        C494   1.286       .  A
O493       Zr501   2.432       .  S
O493        C494   1.288       .  A
Zr495       O496   2.435       .  S
Zr495       O497   2.434       .  S
Zr495       O503   2.370       .  S
Zr495       O504   2.374       .  S
Zr495       O507   2.368       .  S
Zr495       O505   2.368       .  S
O496        H516   0.990       .  S
O496        H521   0.990       .  S
O497        H517   0.990       .  S
Zr498       O499   2.434       .  S
Zr498       O500   2.436       .  S
Zr498       O508   2.368       .  S
Zr498       O506   2.367       .  S
O499        H515   0.990       .  S
O500        H514   0.990       .  S
O500        H524   0.990       .  S
Zr501       O504   2.379       .  S
Zr501       O507   2.386       .  S
Zr502       O503   2.378       .  S
Zr502       O505   2.379       .  S
O503        H511   0.966       .  S
O506        H510   0.966       .  S
O507        H512   0.966       .  S
O525      Zr1953   2.442   1_455  S
O525        C527   1.288       .  A
O526        C527   1.288       .  A
O528       Zr540   2.443       .  S
O528        C530   1.288       .  A
O529       Zr564   2.422       .  S
O529        C530   1.286       .  A
O531      Zr1956   2.441   1_455  S
O531        C533   1.288       .  A
O532       Zr563   2.433       .  S
O532        C533   1.288       .  A
O534       Zr537   2.442       .  S
O534        C536   1.288       .  A
O535        C536   1.286       .  A
Zr537      O1941   2.442       .  S
Zr537       O538   2.434       .  S
Zr537       O539   2.436       .  S
Zr537      O1605   2.377   1_556  S
Zr537       O567   2.371       .  S
Zr537      O1985   2.368       .  S
O538       H1997   0.990       .  S
O539       H1996   0.990       .  S
O539        H584   0.990       .  S
Zr540      O1947   2.441       .  S
Zr540       O541   2.435       .  S
Zr540       O542   2.434       .  S
Zr540       O544   2.372       .  S
Zr540      O1959   2.377       .  S
Zr540      O1984   2.367       .  S
Zr540       O570   2.371       .  S
O541        H582   0.990       .  S
O541        H585   0.990       .  S
O542       H1991   0.990       .  S
O543      Zr1599   2.377   1_455  S
O543      Zr1956   2.377   1_455  S
O543       Zr563   2.382       .  S
O544       Zr564   2.382       .  S
O544        H571   0.966       .  S
O545       Zr557   2.441       .  S
O545        C547   1.288       .  A
O546        C547   1.285       .  A
O548      Zr1976   2.437   1_455  S
O548        C550   1.287       .  A
O549       Zr563   2.425       .  S
O549        C550   1.287       .  A
O551       Zr560   2.441       .  S
O551        C553   1.288       .  A
O552       Zr564   2.418       .  S
O552        C553   1.285       .  A
O554      Zr1973   2.438   1_455  S
O554        C556   1.287       .  A
O555        C556   1.287       .  A
Zr557      O1970   2.438       .  S
Zr557       O558   2.435       .  S
Zr557       O559   2.434       .  S
Zr557      O1628   2.375   1_556  S
Zr557      O1985   2.366       .  S
Zr557       O567   2.370       .  S
O558        H578   0.990       .  S
O558        H583   0.990       .  S
O559        H579   0.990       .  S
Zr560      O1964   2.437       .  S
Zr560       O561   2.434       .  S
Zr560       O562   2.435       .  S
Zr560      O1982   2.376       .  S
Zr560       O565   2.369       .  S
Zr560       O570   2.370       .  S
Zr560      O1984   2.365       .  S
O561       H1993   0.990       .  S
O562        H576   0.990       .  S
O562        H586   0.990       .  S
Zr563       O566   2.383       .  S
Zr563       O568   2.385       .  S
Zr564       O565   2.383       .  S
Zr564       O570   2.381       .  S
O565        H573   0.966       .  S
O566      Zr1619   2.375   1_455  S
O566      Zr1976   2.376   1_455  S
O568      Zr1956   2.367   1_455  S
O568      Zr1976   2.365   1_455  S
O568        H572   0.966       .  S
O569      Zr1953   2.368   1_455  S
O569      Zr1973   2.366   1_455  S
O569        H574   0.966       .  S
H575       O1958   0.990       .  S
H577       O1977   0.990   1_455  S
H580       O1955   0.990   1_455  S
H581       O1954   0.990   1_455  S
O587       Zr599   2.445       .  S
O587        C589   1.288       .  A
O588        C589   1.289       .  A
O590      Zr1310   2.446   1_545  S
O590        C592   1.289       .  A
O591       Zr626   2.414       .  S
O591        C592   1.284       .  A
O593       Zr602   2.444       .  S
O593        C595   1.289       .  A
O594       Zr625   2.437       .  S
O594        C595   1.289       .  A
O596      Zr1307   2.446   1_545  S
O596        C598   1.289       .  A
O597        C598   1.284       .  A
Zr599      O1304   2.446       .  S
Zr599       O600   2.434       .  S
Zr599      O1309   2.436       .  S
Zr599       O960   2.373   1_556  S
Zr599      O1337   2.370       .  S
Zr599       O631   2.372       .  S
O600        H643   0.990       .  S
O601      Zr1307   2.436       .  S
O601       H1350   0.990       .  S
O601       H1354   0.990       .  S
Zr602      O1298   2.446       .  S
Zr602       O603   2.435       .  S
Zr602      O1312   2.435       .  S
Zr602      O1314   2.373       .  S
Zr602       O605   2.375       .  S
Zr602       O630   2.372       .  S
Zr602      O1340   2.371       .  S
O603       H1352   0.990       .  S
O603        H647   0.990       .  S
O604      Zr1310   2.435       .  S
O604       H1345   0.990       .  S
O605       Zr625   2.382       .  S
O606       Zr953   2.373   1_545  S
O606      Zr1310   2.373   1_545  S
O606       Zr626   2.382       .  S
O606        H633   0.966       .  S
O607      Zr1327   2.441   1_545  S
O607        C609   1.288       .  A
O608        C609   1.284       .  A
O610       Zr622   2.429       .  S
O610        C612   1.286       .  A
O611       Zr625   2.431       .  S
O611        C612   1.289       .  A
O613      Zr1330   2.440   1_545  S
O613        C615   1.288       .  A
O614       Zr626   2.413       .  S
O614        C615   1.284       .  A
O616       Zr619   2.430       .  S
O616        C618   1.286       .  A
O617        C618   1.288       .  A
Zr619      O1315   2.441       .  S
Zr619       O620   2.435       .  S
Zr619       O621   2.434       .  S
Zr619       O981   2.369   1_556  S
Zr619       O631   2.371       .  S
Zr619      O1337   2.367       .  S
O620       H1348   0.990       .  S
O620        H645   0.990       .  S
O621       H1349   0.990       .  S
Zr622      O1321   2.440       .  S
Zr622       O623   2.433       .  S
Zr622       O624   2.435       .  S
Zr622       O628   2.372       .  S
Zr622      O1335   2.368       .  S
Zr622      O1340   2.367       .  S
Zr622       O630   2.371       .  S
O623        H639   0.990       .  S
O624       H1346   0.990       .  S
O624        H648   0.990       .  S
Zr625       O628   2.382       .  S
Zr625       O630   2.387       .  S
Zr626       O627   2.380       .  S
Zr626       O632   2.379       .  S
O627       Zr973   2.369   1_545  S
O627      Zr1330   2.368   1_545  S
O627        H635   0.966       .  S
O629      Zr1307   2.370   1_545  S
O629      Zr1327   2.367   1_545  S
O630        H634   0.966       .  S
O631        H636   0.966       .  S
O632      Zr1310   2.371   1_545  S
O632      Zr1330   2.367   1_545  S
H637       O1312   0.990       .  S
H638       O1332   0.990   1_545  S
H640       O1328   0.990   1_545  S
H641       O1329   0.990   1_545  S
H642       O1309   0.990       .  S
H644       O1311   0.990   1_545  S
H646       O1309   0.990       .  S
C649        C650   1.412       .  A
C649        C654   1.403       .  A
C649       Br656   1.936       .  S
C650        C651   1.411       .  A
C651        C652   1.407       .  A
C651       Br658   1.932       .  S
C652        C653   1.411       .  A
C652       Br657   1.932       .  S
C653        C654   1.412       .  A
C654       Br655   1.936       .  S
C659        C660   1.411       .  A
C659        C664   1.404       .  A
C659       Br666   1.934       .  S
C660        C661   1.410       .  A
C661        C662   1.406       .  A
C661       Br668   1.931       .  S
C662        C663   1.410       .  A
C662       Br667   1.931       .  S
C663        C664   1.411       .  A
C664       Br665   1.934       .  S
C669        C670   1.412       .  A
C669        C674   1.407       .  A
C669       Br676   1.933       .  S
C670        C671   1.414       .  A
C671        C672   1.404       .  A
C671       Br678   1.938       .  S
C672        C673   1.414       .  A
C672       Br677   1.938       .  S
C673        C674   1.412       .  A
C674       Br675   1.933       .  S
C679        C680   1.409       .  A
C679        C684   1.404       .  A
C679       Br686   1.928       .  S
C680        C681   1.411       .  A
C681        C682   1.412       .  A
C681       Br688   1.928       .  S
C682        C683   1.411       .  A
C682       Br687   1.928       .  S
C683        C684   1.409       .  A
C684       Br685   1.928       .  S
C689        C690   1.416       .  A
C689        C694   1.415       .  A
C689       Br696   1.933       .  S
C690        C691   1.420       .  A
C691        C692   1.410       .  A
C691       Br698   1.938       .  S
C692        C693   1.420       .  A
C692       Br697   1.938       .  S
C693        C694   1.416       .  A
C694       Br695   1.933       .  S
C699        C700   1.411       .  A
C699        C704   1.413       .  A
C699       Br706   1.927       .  S
C700        C701   1.408       .  A
C701        C702   1.405       .  A
C701       Br708   1.925       .  S
C702        C703   1.408       .  A
C702       Br707   1.925       .  S
C703        C704   1.411       .  A
C704       Br705   1.927       .  S
C709        C710   1.405       .  A
C709        C714   1.401       .  A
C709       C1057   1.485       .  S
C710        C711   1.407       .  A
C710        H715   1.084       .  S
C711        C712   1.406       .  A
C711        C949   1.480       .  S
C712        C713   1.407       .  A
C712        H716   1.084       .  S
C713        C714   1.405       .  A
C713        C819   1.476       .  S
C714        H717   1.084       .  S
C718        C719   1.405       .  A
C718        C723   1.401       .  A
C718       C1054   1.485       .  S
C719        C720   1.407       .  A
C719        H724   1.084       .  S
C720        C721   1.406       .  A
C720        C943   1.480       .  S
C721        C722   1.407       .  A
C721        H725   1.084       .  S
C722        C723   1.404       .  A
C722        C825   1.476       .  S
C723        H726   1.084       .  S
C727        C728   1.405       .  A
C727        C732   1.410       .  A
C727       C1044   1.503       .  S
C728        C729   1.405       .  A
C728        H733   1.083       .  S
C729        C730   1.401       .  A
C729        C972   1.475       .  S
C730        C731   1.401       .  A
C730        H734   1.084       .  S
C731        C732   1.409       .  A
C731        C881   1.475       .  S
C732        H735   1.083       .  S
C736        C737   1.405       .  A
C736        C741   1.410       .  A
C736       C1047   1.503       .  S
C737        C738   1.405       .  A
C737        H742   1.083       .  S
C738        C739   1.401       .  A
C738        C966   1.475       .  S
C739        C740   1.401       .  A
C739        H743   1.084       .  S
C740        C741   1.408       .  A
C740        C887   1.475       .  S
C741        H744   1.083       .  S
C745        C746   1.403       .  A
C745        C750   1.403       .  A
C745       C1037   1.484       .  S
C746        C747   1.406       .  A
C746        H751   1.084       .  S
C747        C748   1.403       .  A
C747        C904   1.472       .  S
C748        C749   1.402       .  A
C748        H752   1.084       .  S
C749        C750   1.404       .  A
C749        C848   1.472       .  S
C750        H753   1.084       .  S
C754        C755   1.403       .  A
C754        C759   1.403       .  A
C754       C1034   1.484       .  S
C755        C756   1.406       .  A
C755        H760   1.084       .  S
C756        C757   1.403       .  A
C756        C910   1.472       .  S
C757        C758   1.402       .  A
C757        H761   1.084       .  S
C758        C759   1.404       .  A
C758        C842   1.472       .  S
C759        H762   1.084       .  S
C763        C764   1.402       .  A
C763        C768   1.403       .  A
C763       C1027   1.482       .  S
C764        C765   1.401       .  A
C764        H769   1.084       .  S
C765        C766   1.404       .  A
C765        C901   1.472       .  S
C766        C767   1.404       .  A
C766        H770   1.084       .  S
C767        C768   1.401       .  A
C767        C952   1.470       .  S
C768        H771   1.084       .  S
C772        C773   1.402       .  A
C772        C777   1.403       .  A
C772       C1024   1.482       .  S
C773        C774   1.401       .  A
C773        H778   1.084       .  S
C774        C775   1.404       .  A
C774        C907   1.471       .  S
C775        C776   1.404       .  A
C775        H779   1.084       .  S
C776        C777   1.401       .  A
C776        C946   1.470       .  S
C777        H780   1.084       .  S
C781        C782   1.401       .  A
C781        C786   1.401       .  A
C781       C1017   1.476       .  S
C782        C783   1.401       .  A
C782        H787   1.084       .  S
C783        C784   1.406       .  A
C783        C828   1.473       .  S
C784        C785   1.405       .  A
C784        H788   1.084       .  S
C785        C786   1.401       .  A
C785        C884   1.472       .  S
C786        H789   1.084       .  S
C790        C791   1.401       .  A
C790        C795   1.401       .  A
C790       C1014   1.476       .  S
C791        C792   1.401       .  A
C791        H796   1.084       .  S
C792        C793   1.406       .  A
C792        C822   1.473       .  S
C793        C794   1.404       .  A
C793        H797   1.084       .  S
C794        C795   1.401       .  A
C794        C890   1.472       .  S
C795        H798   1.084       .  S
C799        C800   1.401       .  A
C799        C804   1.401       .  A
C799       C1007   1.478       .  S
C800        C801   1.402       .  A
C800        H805   1.084       .  S
C801        C802   1.402       .  A
C801        C845   1.469       .  S
C802        C803   1.404       .  A
C802        H806   1.084       .  S
C803        C804   1.401       .  A
C803        C963   1.470       .  S
C804        H807   1.084       .  S
C808        C809   1.401       .  A
C808        C813   1.401       .  A
C808       C1004   1.478       .  S
C809        C810   1.401       .  A
C809        H814   1.084       .  S
C810        C811   1.404       .  A
C810        C969   1.470       .  S
C811        C812   1.403       .  A
C811        H815   1.084       .  S
C812        C813   1.402       .  A
C812        C839   1.469       .  S
C813        H816   1.084       .  S
O817       Zr829   2.448       .  S
O817        C819   1.289       .  A
O818       Zr855   2.426       .  S
O818        C819   1.287       .  A
O820       Zr832   2.453       .  S
O820        C822   1.291       .  A
O821      Zr1210   2.410       .  S
O821        C822   1.284       .  A
O823       Zr832   2.447       .  S
O823        C825   1.290       .  A
O824      Zr1209   2.426       .  S
O824        C825   1.287       .  A
O826       Zr829   2.452       .  S
O826        C828   1.291       .  A
O827       Zr856   2.411       .  S
O827        C828   1.284       .  A
Zr829       O830   2.434       .  S
Zr829       O831   2.436       .  S
Zr829       O835   2.375       .  S
Zr829       O836   2.371       .  S
Zr829       O859   2.371       .  S
Zr829       O861   2.372       .  S
O830        H873   0.990       .  S
O831        H872   0.990       .  S
O831        H876   0.990       .  S
Zr832       O833   2.435       .  S
Zr832       O834   2.435       .  S
Zr832      O1190   2.372       .  S
Zr832      O1189   2.375       .  S
Zr832       O860   2.371       .  S
Zr832       O862   2.371       .  S
O833        H874   0.990       .  S
O833        H877   0.990       .  S
O834        H867   0.990       .  S
O835      Zr1186   2.375   1_554  S
O835       Zr855   2.385       .  S
O836      Zr1186   2.372   1_554  S
O836       Zr856   2.385       .  S
O836        H863   0.966       .  S
O837       Zr849   2.434       .  S
O837        C839   1.286       .  A
O838       Zr856   2.422       .  S
O838        C839   1.286       .  A
O840       Zr852   2.429       .  S
O840        C842   1.286       .  A
O841      Zr1209   2.432       .  S
O841        C842   1.288       .  A
O843       Zr852   2.434       .  S
O843        C845   1.286       .  A
O844      Zr1210   2.422       .  S
O844        C845   1.285       .  A
O846       Zr849   2.429       .  S
O846        C848   1.286       .  A
O847       Zr855   2.432       .  S
O847        C848   1.288       .  A
Zr849       O850   2.435       .  S
Zr849       O851   2.434       .  S
Zr849       O857   2.370       .  S
Zr849       O858   2.374       .  S
Zr849       O861   2.368       .  S
Zr849       O859   2.368       .  S
O850        H870   0.990       .  S
O850        H875   0.990       .  S
O851        H871   0.990       .  S
Zr852       O853   2.434       .  S
Zr852       O854   2.436       .  S
Zr852      O1212   2.374       .  S
Zr852      O1211   2.370       .  S
Zr852       O862   2.368       .  S
Zr852       O860   2.367       .  S
O853        H869   0.990       .  S
O854        H868   0.990       .  S
O854        H878   0.990       .  S
Zr855      O1178   2.426   1_554  S
Zr855      O1195   2.432   1_554  S
Zr855       O858   2.379       .  S
Zr855      O1214   2.386   1_554  S
Zr855       O861   2.386       .  S
Zr856      O1175   2.410   1_554  S
Zr856      O1198   2.422   1_554  S
Zr856       O857   2.378       .  S
Zr856       O859   2.379       .  S
Zr856      O1216   2.380   1_554  S
O857      Zr1206   2.370   1_554  S
O857        H865   0.966       .  S
O858      Zr1206   2.374   1_554  S
O860      Zr1209   2.386       .  S
O860        H864   0.966       .  S
O861        H866   0.966       .  S
O862      Zr1210   2.380       .  S
O879      Zr2307   2.442   1_455  S
O879        C881   1.288       .  A
O880      Zr1271   2.433       .  S
O880        C881   1.288       .  A
O882       Zr894   2.443       .  S
O882        C884   1.288       .  A
O883       Zr918   2.422       .  S
O883        C884   1.286       .  A
O885      Zr2310   2.441   1_455  S
O885        C887   1.288       .  A
O886       Zr917   2.433       .  S
O886        C887   1.288       .  A
O888       Zr891   2.442       .  S
O888        C890   1.288       .  A
O889      Zr1272   2.422       .  S
O889        C890   1.286       .  A
Zr891      O2295   2.442       .  S
Zr891       O892   2.434       .  S
Zr891       O893   2.436       .  S
Zr891      O2667   2.377       .  S
Zr891      O1252   2.371       .  S
Zr891       O921   2.371       .  S
Zr891      O2339   2.368       .  S
O892       H2351   0.990       .  S
O893       H2350   0.990       .  S
O893        H938   0.990       .  S
Zr894      O2301   2.441       .  S
Zr894       O895   2.435       .  S
Zr894       O896   2.434       .  S
Zr894       O898   2.372       .  S
Zr894      O2313   2.377       .  S
Zr894      O2338   2.367       .  S
Zr894       O924   2.371       .  S
O895        H936   0.990       .  S
O895        H939   0.990       .  S
O896       H2345   0.990       .  S
O897      Zr2661   2.377   1_454  S
O897      Zr2310   2.377   1_455  S
O897       Zr917   2.382       .  S
O898      Zr1245   2.371   1_554  S
O898       Zr918   2.382       .  S
O898        H925   0.966       .  S
O899       Zr911   2.441       .  S
O899        C901   1.288       .  A
O900      Zr1272   2.418       .  S
O900        C901   1.285       .  A
O902      Zr2330   2.437   1_455  S
O902        C904   1.287       .  A
O903       Zr917   2.425       .  S
O903        C904   1.287       .  A
O905       Zr914   2.441       .  S
O905        C907   1.288       .  A
O906       Zr918   2.418       .  S
O906        C907   1.285       .  A
O908      Zr2327   2.438   1_455  S
O908        C910   1.287       .  A
O909      Zr1271   2.425       .  S
O909        C910   1.287       .  A
Zr911      O2324   2.438       .  S
Zr911       O912   2.435       .  S
Zr911       O913   2.434       .  S
Zr911      O1273   2.370       .  S
Zr911      O2690   2.375       .  S
Zr911      O2339   2.366       .  S
Zr911       O921   2.370       .  S
O912        H932   0.990       .  S
O912        H937   0.990       .  S
O913        H933   0.990       .  S
Zr914      O2318   2.437       .  S
Zr914       O915   2.434       .  S
Zr914       O916   2.435       .  S
Zr914      O2336   2.376       .  S
Zr914       O919   2.369       .  S
Zr914       O924   2.370       .  S
Zr914      O2338   2.365       .  S
O915       H2347   0.990       .  S
O916        H930   0.990       .  S
O916        H940   0.990       .  S
Zr917      O1234   2.433   1_554  S
Zr917      O1263   2.425   1_554  S
Zr917       O920   2.383       .  S
Zr917       O922   2.385       .  S
Zr917      O1277   2.386   1_554  S
Zr918      O1243   2.422   1_554  S
Zr918      O1254   2.418   1_554  S
Zr918       O919   2.383       .  S
Zr918      O1275   2.381   1_554  S
Zr918       O924   2.381       .  S
O919      Zr1265   2.370   1_554  S
O919        H927   0.966       .  S
O920      Zr2681   2.375   1_454  S
O920      Zr2330   2.376   1_455  S
O921      Zr1272   2.381       .  S
O922      Zr2310   2.367   1_455  S
O922      Zr2330   2.365   1_455  S
O922        H926   0.966       .  S
O923      Zr2307   2.368   1_455  S
O923      Zr2327   2.366   1_455  S
O923      Zr1271   2.386       .  S
O923        H928   0.966       .  S
H929       O2312   0.990       .  S
H931       O2331   0.990   1_455  S
H934       O2309   0.990   1_455  S
H935       O2308   0.990   1_455  S
O941       Zr953   2.445       .  S
O941        C943   1.288       .  A
O942      Zr1333   2.437       .  S
O942        C943   1.289       .  A
O944        C946   1.289       .  A
O945       Zr980   2.414       .  S
O945        C946   1.284       .  A
O947       Zr956   2.444       .  S
O947        C949   1.289       .  A
O948       Zr979   2.437       .  S
O948        C949   1.289       .  A
O950        C952   1.289       .  A
O951      Zr1334   2.415       .  S
O951        C952   1.284       .  A
Zr953       O954   2.434       .  S
Zr953      O1313   2.376       .  S
Zr953       O985   2.372       .  S
O954        H997   0.990       .  S
Zr956       O957   2.435       .  S
Zr956       O959   2.375       .  S
Zr956       O984   2.372       .  S
O957       H1001   0.990       .  S
O959      Zr1307   2.376   1_554  S
O959       Zr979   2.382       .  S
O960       Zr980   2.382       .  S
O960        H987   0.966       .  S
O961        C963   1.288       .  A
O962      Zr1334   2.413       .  S
O962        C963   1.284       .  A
O964       Zr976   2.429       .  S
O964        C966   1.286       .  A
O965       Zr979   2.431       .  S
O965        C966   1.289       .  A
O967        C969   1.288       .  A
O968       Zr980   2.413       .  S
O968        C969   1.284       .  A
O970       Zr973   2.430       .  S
O970        C972   1.286       .  A
O971      Zr1333   2.430       .  S
O971        C972   1.288       .  A
Zr973       O974   2.435       .  S
Zr973       O975   2.434       .  S
Zr973      O1336   2.372       .  S
Zr973       O985   2.371       .  S
O974        H999   0.990   1_565  S
Zr976       O977   2.433       .  S
Zr976       O978   2.435       .  S
Zr976       O982   2.372       .  S
Zr976       O984   2.371       .  S
O977        H993   0.990       .  S
O978       H1002   0.990   1_565  S
Zr979      O1296   2.437   1_554  S
Zr979      O1325   2.430   1_554  S
Zr979       O982   2.382       .  S
Zr979       O984   2.387       .  S
Zr979      O1339   2.388   1_554  S
Zr980      O1305   2.415   1_554  S
Zr980      O1316   2.413   1_554  S
Zr980       O981   2.380       .  S
Zr980      O1337   2.378   1_554  S
Zr980       O986   2.379       .  S
O981        H989   0.966       .  S
O982      Zr1327   2.372   1_554  S
O983      Zr1334   2.378       .  S
O984        H988   0.966       .  S
O985      Zr1333   2.388       .  S
O985        H990   0.966       .  S
C1003      C1004   1.412       .  A
C1003      C1008   1.403       .  A
C1003     Br1010   1.936       .  S
C1004      C1005   1.411       .  A
C1005      C1006   1.407       .  A
C1005     Br1012   1.932       .  S
C1006      C1007   1.411       .  A
C1006     Br1011   1.932       .  S
C1007      C1008   1.412       .  A
C1008     Br1009   1.936       .  S
C1013      C1014   1.411       .  A
C1013      C1018   1.404       .  A
C1013     Br1020   1.934       .  S
C1014      C1015   1.410       .  A
C1015      C1016   1.406       .  A
C1015     Br1022   1.931       .  S
C1016      C1017   1.410       .  A
C1016     Br1021   1.931       .  S
C1017      C1018   1.411       .  A
C1018     Br1019   1.934       .  S
C1023      C1024   1.412       .  A
C1023      C1028   1.407       .  A
C1023     Br1030   1.933       .  S
C1024      C1025   1.414       .  A
C1025      C1026   1.404       .  A
C1025     Br1032   1.938       .  S
C1026      C1027   1.414       .  A
C1026     Br1031   1.938       .  S
C1027      C1028   1.412       .  A
C1028     Br1029   1.933       .  S
C1033      C1034   1.409       .  A
C1033      C1038   1.404       .  A
C1033     Br1040   1.928       .  S
C1034      C1035   1.411       .  A
C1035      C1036   1.412       .  A
C1035     Br1042   1.928       .  S
C1036      C1037   1.411       .  A
C1036     Br1041   1.928       .  S
C1037      C1038   1.409       .  A
C1038     Br1039   1.928       .  S
C1043      C1044   1.416       .  A
C1043      C1048   1.415       .  A
C1043     Br1050   1.933       .  S
C1044      C1045   1.420       .  A
C1045      C1046   1.410       .  A
C1045     Br1052   1.938       .  S
C1046      C1047   1.420       .  A
C1046     Br1051   1.938       .  S
C1047      C1048   1.416       .  A
C1048     Br1049   1.933       .  S
C1053      C1054   1.411       .  A
C1053      C1058   1.413       .  A
C1053     Br1060   1.927       .  S
C1054      C1055   1.408       .  A
C1055      C1056   1.405       .  A
C1055     Br1062   1.925       .  S
C1056      C1057   1.408       .  A
C1056     Br1061   1.925       .  S
C1057      C1058   1.411       .  A
C1058     Br1059   1.927       .  S
C1063      C1064   1.405       .  A
C1063      C1068   1.401       .  A
C1063      C1411   1.485       .  S
C1064      C1065   1.407       .  A
C1064      H1069   1.084       .  S
C1065      C1066   1.406       .  A
C1065      C1303   1.480       .  S
C1066      C1067   1.407       .  A
C1066      H1070   1.084       .  S
C1067      C1068   1.405       .  A
C1067      C1173   1.476       .  S
C1068      H1071   1.084       .  S
C1072      C1073   1.405       .  A
C1072      C1077   1.401       .  A
C1072      C1408   1.485       .  S
C1073      C1074   1.407       .  A
C1073      H1078   1.084       .  S
C1074      C1075   1.406       .  A
C1074      C1297   1.480       .  S
C1075      C1076   1.407       .  A
C1075      H1079   1.084       .  S
C1076      C1077   1.404       .  A
C1076      C1179   1.476       .  S
C1077      H1080   1.084       .  S
C1081      C1082   1.405       .  A
C1081      C1086   1.410       .  A
C1081      C1398   1.503       .  S
C1082      C1083   1.405       .  A
C1082      H1087   1.083       .  S
C1083      C1084   1.401       .  A
C1083      C1326   1.475       .  S
C1084      C1085   1.401       .  A
C1084      H1088   1.084       .  S
C1085      C1086   1.409       .  A
C1085      C1235   1.475       .  S
C1086      H1089   1.083       .  S
C1090      C1091   1.405       .  A
C1090      C1095   1.410       .  A
C1090      C1401   1.503       .  S
C1091      C1092   1.405       .  A
C1091      H1096   1.083       .  S
C1092      C1093   1.401       .  A
C1092      C1320   1.475       .  S
C1093      C1094   1.401       .  A
C1093      H1097   1.084       .  S
C1094      C1095   1.408       .  A
C1094      C1241   1.475       .  S
C1095      H1098   1.083       .  S
C1099      C1100   1.403       .  A
C1099      C1104   1.403       .  A
C1099      C1391   1.484       .  S
C1100      C1101   1.406       .  A
C1100      H1105   1.084       .  S
C1101      C1102   1.403       .  A
C1101      C1258   1.472       .  S
C1102      C1103   1.402       .  A
C1102      H1106   1.084       .  S
C1103      C1104   1.404       .  A
C1103      C1202   1.472       .  S
C1104      H1107   1.084       .  S
C1108      C1109   1.403       .  A
C1108      C1113   1.403       .  A
C1108      C1388   1.484       .  S
C1109      C1110   1.406       .  A
C1109      H1114   1.084       .  S
C1110      C1111   1.403       .  A
C1110      C1264   1.472       .  S
C1111      C1112   1.402       .  A
C1111      H1115   1.084       .  S
C1112      C1113   1.404       .  A
C1112      C1196   1.472       .  S
C1113      H1116   1.084       .  S
C1117      C1118   1.402       .  A
C1117      C1122   1.403       .  A
C1117      C1381   1.482       .  S
C1118      C1119   1.401       .  A
C1118      H1123   1.084       .  S
C1119      C1120   1.404       .  A
C1119      C1255   1.472       .  S
C1120      C1121   1.404       .  A
C1120      H1124   1.084       .  S
C1121      C1122   1.401       .  A
C1121      C1306   1.470       .  S
C1122      H1125   1.084       .  S
C1126      C1127   1.402       .  A
C1126      C1131   1.403       .  A
C1126      C1378   1.482       .  S
C1127      C1128   1.401       .  A
C1127      H1132   1.084       .  S
C1128      C1129   1.404       .  A
C1128      C1261   1.471       .  S
C1129      C1130   1.404       .  A
C1129      H1133   1.084       .  S
C1130      C1131   1.401       .  A
C1130      C1300   1.470       .  S
C1131      H1134   1.084       .  S
C1135      C1136   1.401       .  A
C1135      C1140   1.401       .  A
C1135      C1371   1.476       .  S
C1136      C1137   1.401       .  A
C1136      H1141   1.084       .  S
C1137      C1138   1.406       .  A
C1137      C1182   1.473       .  S
C1138      C1139   1.405       .  A
C1138      H1142   1.084       .  S
C1139      C1140   1.401       .  A
C1139      C1238   1.472       .  S
C1140      H1143   1.084       .  S
C1144      C1145   1.401       .  A
C1144      C1149   1.401       .  A
C1144      C1368   1.476       .  S
C1145      C1146   1.401       .  A
C1145      H1150   1.084       .  S
C1146      C1147   1.406       .  A
C1146      C1176   1.473       .  S
C1147      C1148   1.404       .  A
C1147      H1151   1.084       .  S
C1148      C1149   1.401       .  A
C1148      C1244   1.472       .  S
C1149      H1152   1.084       .  S
C1153      C1154   1.401       .  A
C1153      C1158   1.401       .  A
C1153      C1361   1.478       .  S
C1154      C1155   1.402       .  A
C1154      H1159   1.084       .  S
C1155      C1156   1.402       .  A
C1155      C1199   1.469       .  S
C1156      C1157   1.404       .  A
C1156      H1160   1.084       .  S
C1157      C1158   1.401       .  A
C1157      C1317   1.470       .  S
C1158      H1161   1.084       .  S
C1162      C1163   1.401       .  A
C1162      C1167   1.401       .  A
C1162      C1358   1.478       .  S
C1163      C1164   1.401       .  A
C1163      H1168   1.084       .  S
C1164      C1165   1.404       .  A
C1164      C1323   1.470       .  S
C1165      C1166   1.403       .  A
C1165      H1169   1.084       .  S
C1166      C1167   1.402       .  A
C1166      C1193   1.469       .  S
C1167      H1170   1.084       .  S
O1171     Zr1183   2.448       .  S
O1171      C1173   1.289       .  A
O1172     Zr1209   2.426       .  S
O1172      C1173   1.287       .  A
O1174     Zr1186   2.453       .  S
O1174      C1176   1.291       .  A
O1175      C1176   1.284       .  A
O1177     Zr1186   2.447       .  S
O1177      C1179   1.290       .  A
O1178      C1179   1.287       .  A
O1180     Zr1183   2.452       .  S
O1180      C1182   1.291       .  A
O1181     Zr1210   2.411       .  S
O1181      C1182   1.284       .  A
Zr1183     O1184   2.434       .  S
Zr1183     O1185   2.436       .  S
Zr1183     O1189   2.375       .  S
Zr1183     O1190   2.371       .  S
Zr1183     O1213   2.371       .  S
Zr1183     O1215   2.372       .  S
O1184      H1227   0.990       .  S
O1185      H1226   0.990       .  S
O1185      H1230   0.990       .  S
Zr1186     O1187   2.435       .  S
Zr1186     O1188   2.435       .  S
Zr1186     O1214   2.371       .  S
Zr1186     O1216   2.371       .  S
O1187      H1228   0.990       .  S
O1187      H1231   0.990       .  S
O1188      H1221   0.990       .  S
O1189     Zr1209   2.385       .  S
O1190     Zr1210   2.385       .  S
O1190      H1217   0.966       .  S
O1191     Zr1203   2.434       .  S
O1191      C1193   1.286       .  A
O1192     Zr1210   2.422       .  S
O1192      C1193   1.286       .  A
O1194     Zr1206   2.429       .  S
O1194      C1196   1.286       .  A
O1195      C1196   1.288       .  A
O1197     Zr1206   2.434       .  S
O1197      C1199   1.286       .  A
O1198      C1199   1.285       .  A
O1200     Zr1203   2.429       .  S
O1200      C1202   1.286       .  A
O1201     Zr1209   2.432       .  S
O1201      C1202   1.288       .  A
Zr1203     O1204   2.435       .  S
Zr1203     O1205   2.434       .  S
Zr1203     O1211   2.370       .  S
Zr1203     O1212   2.374       .  S
Zr1203     O1215   2.368       .  S
Zr1203     O1213   2.368       .  S
O1204      H1224   0.990       .  S
O1204      H1229   0.990       .  S
O1205      H1225   0.990       .  S
Zr1206     O1207   2.434       .  S
Zr1206     O1208   2.436       .  S
Zr1206     O1216   2.368       .  S
Zr1206     O1214   2.367       .  S
O1207      H1223   0.990       .  S
O1208      H1222   0.990       .  S
O1208      H1232   0.990       .  S
Zr1209     O1212   2.379       .  S
Zr1209     O1215   2.386       .  S
Zr1210     O1211   2.378       .  S
Zr1210     O1213   2.379       .  S
O1211      H1219   0.966       .  S
O1214      H1218   0.966       .  S
O1215      H1220   0.966       .  S
O1233     Zr2661   2.442   1_455  S
O1233      C1235   1.288       .  A
O1234      C1235   1.288       .  A
O1236     Zr1248   2.443       .  S
O1236      C1238   1.288       .  A
O1237     Zr1272   2.422       .  S
O1237      C1238   1.286       .  A
O1239     Zr2664   2.441   1_455  S
O1239      C1241   1.288       .  A
O1240     Zr1271   2.433       .  S
O1240      C1241   1.288       .  A
O1242     Zr1245   2.442       .  S
O1242      C1244   1.288       .  A
O1243      C1244   1.286       .  A
Zr1245     O2649   2.442       .  S
Zr1245     O1246   2.434       .  S
Zr1245     O1247   2.436       .  S
Zr1245     O2313   2.377   1_556  S
Zr1245     O1275   2.371       .  S
Zr1245     O2693   2.368       .  S
O1246      H2705   0.990       .  S
O1247      H2704   0.990       .  S
O1247      H1292   0.990       .  S
Zr1248     O2655   2.441       .  S
Zr1248     O1249   2.435       .  S
Zr1248     O1250   2.434       .  S
Zr1248     O1252   2.372       .  S
Zr1248     O2667   2.377       .  S
Zr1248     O2692   2.367       .  S
Zr1248     O1278   2.371       .  S
O1249      H1290   0.990       .  S
O1249      H1293   0.990       .  S
O1250      H2699   0.990       .  S
O1251     Zr2307   2.377   1_455  S
O1251     Zr2664   2.377   1_455  S
O1251     Zr1271   2.382       .  S
O1252     Zr1272   2.382       .  S
O1252      H1279   0.966       .  S
O1253     Zr1265   2.441       .  S
O1253      C1255   1.288       .  A
O1254      C1255   1.285       .  A
O1256     Zr2684   2.437   1_455  S
O1256      C1258   1.287       .  A
O1257     Zr1271   2.425       .  S
O1257      C1258   1.287       .  A
O1259     Zr1268   2.441       .  S
O1259      C1261   1.288       .  A
O1260     Zr1272   2.418       .  S
O1260      C1261   1.285       .  A
O1262     Zr2681   2.438   1_455  S
O1262      C1264   1.287       .  A
O1263      C1264   1.287       .  A
Zr1265     O2678   2.438       .  S
Zr1265     O1266   2.435       .  S
Zr1265     O1267   2.434       .  S
Zr1265     O2336   2.375   1_556  S
Zr1265     O2693   2.366       .  S
Zr1265     O1275   2.370       .  S
O1266      H1286   0.990       .  S
O1266      H1291   0.990       .  S
O1267      H1287   0.990       .  S
Zr1268     O2672   2.437       .  S
Zr1268     O1269   2.434       .  S
Zr1268     O1270   2.435       .  S
Zr1268     O2690   2.376       .  S
Zr1268     O1273   2.369       .  S
Zr1268     O1278   2.370       .  S
Zr1268     O2692   2.365       .  S
O1269      H2701   0.990       .  S
O1270      H1284   0.990       .  S
O1270      H1294   0.990       .  S
Zr1271     O1274   2.383       .  S
Zr1271     O1276   2.385       .  S
Zr1272     O1273   2.383       .  S
Zr1272     O1278   2.381       .  S
O1273      H1281   0.966       .  S
O1274     Zr2327   2.375   1_455  S
O1274     Zr2684   2.376   1_455  S
O1276     Zr2664   2.367   1_455  S
O1276     Zr2684   2.365   1_455  S
O1276      H1280   0.966       .  S
O1277     Zr2661   2.368   1_455  S
O1277     Zr2681   2.366   1_455  S
O1277      H1282   0.966       .  S
H1283      O2666   0.990       .  S
H1285      O2685   0.990   1_455  S
H1288      O2663   0.990   1_455  S
H1289      O2662   0.990   1_455  S
O1295     Zr1307   2.445       .  S
O1295      C1297   1.288       .  A
O1296      C1297   1.289       .  A
O1298      C1300   1.289       .  A
O1299     Zr1334   2.414       .  S
O1299      C1300   1.284       .  A
O1301     Zr1310   2.444       .  S
O1301      C1303   1.289       .  A
O1302     Zr1333   2.437       .  S
O1302      C1303   1.289       .  A
O1304      C1306   1.289       .  A
O1305      C1306   1.284       .  A
Zr1307     O1308   2.434       .  S
Zr1307     O1339   2.372       .  S
O1308      H1351   0.990       .  S
Zr1310     O1311   2.435       .  S
Zr1310     O1313   2.375       .  S
Zr1310     O1338   2.372       .  S
O1311      H1355   0.990       .  S
O1313     Zr1333   2.382       .  S
O1314     Zr1334   2.382       .  S
O1314      H1341   0.966       .  S
O1315      C1317   1.288       .  A
O1316      C1317   1.284       .  A
O1318     Zr1330   2.429       .  S
O1318      C1320   1.286       .  A
O1319     Zr1333   2.431       .  S
O1319      C1320   1.289       .  A
O1321      C1323   1.288       .  A
O1322     Zr1334   2.413       .  S
O1322      C1323   1.284       .  A
O1324     Zr1327   2.430       .  S
O1324      C1326   1.286       .  A
O1325      C1326   1.288       .  A
Zr1327     O1328   2.435       .  S
Zr1327     O1329   2.434       .  S
Zr1327     O1339   2.371       .  S
O1328      H1353   0.990   1_565  S
Zr1330     O1331   2.433       .  S
Zr1330     O1332   2.435       .  S
Zr1330     O1336   2.372       .  S
Zr1330     O1338   2.371       .  S
O1331      H1347   0.990       .  S
O1332      H1356   0.990   1_565  S
Zr1333     O1336   2.382       .  S
Zr1333     O1338   2.387       .  S
Zr1334     O1335   2.380       .  S
Zr1334     O1340   2.379       .  S
O1335      H1343   0.966       .  S
O1338      H1342   0.966       .  S
O1339      H1344   0.966       .  S
C1357      C1358   1.412       .  A
C1357      C1362   1.403       .  A
C1357     Br1364   1.936       .  S
C1358      C1359   1.411       .  A
C1359      C1360   1.407       .  A
C1359     Br1366   1.932       .  S
C1360      C1361   1.411       .  A
C1360     Br1365   1.932       .  S
C1361      C1362   1.412       .  A
C1362     Br1363   1.936       .  S
C1367      C1368   1.411       .  A
C1367      C1372   1.404       .  A
C1367     Br1374   1.934       .  S
C1368      C1369   1.410       .  A
C1369      C1370   1.406       .  A
C1369     Br1376   1.931       .  S
C1370      C1371   1.410       .  A
C1370     Br1375   1.931       .  S
C1371      C1372   1.411       .  A
C1372     Br1373   1.934       .  S
C1377      C1378   1.412       .  A
C1377      C1382   1.407       .  A
C1377     Br1384   1.933       .  S
C1378      C1379   1.414       .  A
C1379      C1380   1.404       .  A
C1379     Br1386   1.938       .  S
C1380      C1381   1.414       .  A
C1380     Br1385   1.938       .  S
C1381      C1382   1.412       .  A
C1382     Br1383   1.933       .  S
C1387      C1388   1.409       .  A
C1387      C1392   1.404       .  A
C1387     Br1394   1.928       .  S
C1388      C1389   1.411       .  A
C1389      C1390   1.412       .  A
C1389     Br1396   1.928       .  S
C1390      C1391   1.411       .  A
C1390     Br1395   1.928       .  S
C1391      C1392   1.409       .  A
C1392     Br1393   1.928       .  S
C1397      C1398   1.416       .  A
C1397      C1402   1.415       .  A
C1397     Br1404   1.933       .  S
C1398      C1399   1.420       .  A
C1399      C1400   1.410       .  A
C1399     Br1406   1.938       .  S
C1400      C1401   1.420       .  A
C1400     Br1405   1.938       .  S
C1401      C1402   1.416       .  A
C1402     Br1403   1.933       .  S
C1407      C1408   1.411       .  A
C1407      C1412   1.413       .  A
C1407     Br1414   1.927       .  S
C1408      C1409   1.408       .  A
C1409      C1410   1.405       .  A
C1409     Br1416   1.925       .  S
C1410      C1411   1.408       .  A
C1410     Br1415   1.925       .  S
C1411      C1412   1.411       .  A
C1412     Br1413   1.927       .  S
C1417      C1418   1.405       .  A
C1417      C1422   1.401       .  A
C1417      C1765   1.485       .  S
C1418      C1419   1.407       .  A
C1418      H1423   1.084       .  S
C1419      C1420   1.406       .  A
C1419      C1657   1.480       .  S
C1420      C1421   1.407       .  A
C1420      H1424   1.084       .  S
C1421      C1422   1.405       .  A
C1421      C1527   1.476       .  S
C1422      H1425   1.084       .  S
C1426      C1427   1.405       .  A
C1426      C1431   1.401       .  A
C1426      C1762   1.485       .  S
C1427      C1428   1.407       .  A
C1427      H1432   1.084       .  S
C1428      C1429   1.406       .  A
C1428      C1651   1.480       .  S
C1429      C1430   1.407       .  A
C1429      H1433   1.084       .  S
C1430      C1431   1.404       .  A
C1430      C1533   1.476       .  S
C1431      H1434   1.084       .  S
C1435      C1436   1.405       .  A
C1435      C1440   1.410       .  A
C1435      C1752   1.503       .  S
C1436      C1437   1.405       .  A
C1436      H1441   1.083       .  S
C1437      C1438   1.401       .  A
C1437      C1680   1.475       .  S
C1438      C1439   1.401       .  A
C1438      H1442   1.084       .  S
C1439      C1440   1.409       .  A
C1439      C1589   1.475       .  S
C1440      H1443   1.083       .  S
C1444      C1445   1.405       .  A
C1444      C1449   1.410       .  A
C1444      C1755   1.503       .  S
C1445      C1446   1.405       .  A
C1445      H1450   1.083       .  S
C1446      C1447   1.401       .  A
C1446      C1674   1.475       .  S
C1447      C1448   1.401       .  A
C1447      H1451   1.084       .  S
C1448      C1449   1.408       .  A
C1448      C1595   1.475       .  S
C1449      H1452   1.083       .  S
C1453      C1454   1.403       .  A
C1453      C1458   1.403       .  A
C1453      C1745   1.484       .  S
C1454      C1455   1.406       .  A
C1454      H1459   1.084       .  S
C1455      C1456   1.403       .  A
C1455      C1612   1.472       .  S
C1456      C1457   1.402       .  A
C1456      H1460   1.084       .  S
C1457      C1458   1.404       .  A
C1457      C1556   1.472       .  S
C1458      H1461   1.084       .  S
C1462      C1463   1.403       .  A
C1462      C1467   1.403       .  A
C1462      C1742   1.484       .  S
C1463      C1464   1.406       .  A
C1463      H1468   1.084       .  S
C1464      C1465   1.403       .  A
C1464      C1618   1.472       .  S
C1465      C1466   1.402       .  A
C1465      H1469   1.084       .  S
C1466      C1467   1.404       .  A
C1466      C1550   1.472       .  S
C1467      H1470   1.084       .  S
C1471      C1472   1.402       .  A
C1471      C1476   1.403       .  A
C1471      C1735   1.482       .  S
C1472      C1473   1.401       .  A
C1472      H1477   1.084       .  S
C1473      C1474   1.404       .  A
C1473      C1609   1.472       .  S
C1474      C1475   1.404       .  A
C1474      H1478   1.084       .  S
C1475      C1476   1.401       .  A
C1475      C1660   1.470       .  S
C1476      H1479   1.084       .  S
C1480      C1481   1.402       .  A
C1480      C1485   1.403       .  A
C1480      C1732   1.482       .  S
C1481      C1482   1.401       .  A
C1481      H1486   1.084       .  S
C1482      C1483   1.404       .  A
C1482      C1615   1.471       .  S
C1483      C1484   1.404       .  A
C1483      H1487   1.084       .  S
C1484      C1485   1.401       .  A
C1484      C1654   1.470       .  S
C1485      H1488   1.084       .  S
C1489      C1490   1.401       .  A
C1489      C1494   1.401       .  A
C1489      C1725   1.476       .  S
C1490      C1491   1.401       .  A
C1490      H1495   1.084       .  S
C1491      C1492   1.406       .  A
C1491      C1536   1.473       .  S
C1492      C1493   1.405       .  A
C1492      H1496   1.084       .  S
C1493      C1494   1.401       .  A
C1493      C1592   1.472       .  S
C1494      H1497   1.084       .  S
C1498      C1499   1.401       .  A
C1498      C1503   1.401       .  A
C1498      C1722   1.476       .  S
C1499      C1500   1.401       .  A
C1499      H1504   1.084       .  S
C1500      C1501   1.406       .  A
C1500      C1530   1.473       .  S
C1501      C1502   1.404       .  A
C1501      H1505   1.084       .  S
C1502      C1503   1.401       .  A
C1502      C1598   1.472       .  S
C1503      H1506   1.084       .  S
C1507      C1508   1.401       .  A
C1507      C1512   1.401       .  A
C1507      C1715   1.478       .  S
C1508      C1509   1.402       .  A
C1508      H1513   1.084       .  S
C1509      C1510   1.402       .  A
C1509      C1553   1.469       .  S
C1510      C1511   1.404       .  A
C1510      H1514   1.084       .  S
C1511      C1512   1.401       .  A
C1511      C1671   1.470       .  S
C1512      H1515   1.084       .  S
C1516      C1517   1.401       .  A
C1516      C1521   1.401       .  A
C1516      C1712   1.478       .  S
C1517      C1518   1.401       .  A
C1517      H1522   1.084       .  S
C1518      C1519   1.404       .  A
C1518      C1677   1.470       .  S
C1519      C1520   1.403       .  A
C1519      H1523   1.084       .  S
C1520      C1521   1.402       .  A
C1520      C1547   1.469       .  S
C1521      H1524   1.084       .  S
O1525     Zr1537   2.448       .  S
O1525      C1527   1.289       .  A
O1526     Zr1563   2.426       .  S
O1526      C1527   1.287       .  A
O1528     Zr1540   2.453       .  S
O1528      C1530   1.291       .  A
O1529     Zr1918   2.410       .  S
O1529      C1530   1.284       .  A
O1531     Zr1540   2.447       .  S
O1531      C1533   1.290       .  A
O1532     Zr1917   2.426       .  S
O1532      C1533   1.287       .  A
O1534     Zr1537   2.452       .  S
O1534      C1536   1.291       .  A
O1535     Zr1564   2.411       .  S
O1535      C1536   1.284       .  A
Zr1537     O1538   2.434       .  S
Zr1537     O1539   2.436       .  S
Zr1537     O1543   2.375       .  S
Zr1537     O1544   2.371       .  S
Zr1537     O1567   2.371       .  S
Zr1537     O1569   2.372       .  S
O1538      H1581   0.990       .  S
O1539      H1580   0.990       .  S
O1539      H1584   0.990       .  S
Zr1540     O1541   2.435       .  S
Zr1540     O1542   2.435       .  S
Zr1540     O1898   2.372       .  S
Zr1540     O1897   2.375       .  S
Zr1540     O1568   2.371       .  S
Zr1540     O1570   2.371       .  S
O1541      H1582   0.990       .  S
O1541      H1585   0.990       .  S
O1542      H1575   0.990       .  S
O1543     Zr1894   2.375   1_554  S
O1543     Zr1563   2.385       .  S
O1544     Zr1894   2.372   1_554  S
O1544     Zr1564   2.385       .  S
O1544      H1571   0.966       .  S
O1545     Zr1557   2.434       .  S
O1545      C1547   1.286       .  A
O1546     Zr1564   2.422       .  S
O1546      C1547   1.286       .  A
O1548     Zr1560   2.429       .  S
O1548      C1550   1.286       .  A
O1549     Zr1917   2.432       .  S
O1549      C1550   1.288       .  A
O1551     Zr1560   2.434       .  S
O1551      C1553   1.286       .  A
O1552     Zr1918   2.422       .  S
O1552      C1553   1.285       .  A
O1554     Zr1557   2.429       .  S
O1554      C1556   1.286       .  A
O1555     Zr1563   2.432       .  S
O1555      C1556   1.288       .  A
Zr1557     O1558   2.435       .  S
Zr1557     O1559   2.434       .  S
Zr1557     O1565   2.370       .  S
Zr1557     O1566   2.374       .  S
Zr1557     O1569   2.368       .  S
Zr1557     O1567   2.368       .  S
O1558      H1578   0.990       .  S
O1558      H1583   0.990       .  S
O1559      H1579   0.990       .  S
Zr1560     O1561   2.434       .  S
Zr1560     O1562   2.436       .  S
Zr1560     O1920   2.374       .  S
Zr1560     O1919   2.370       .  S
Zr1560     O1570   2.368       .  S
Zr1560     O1568   2.367       .  S
O1561      H1577   0.990       .  S
O1562      H1576   0.990       .  S
O1562      H1586   0.990       .  S
Zr1563     O1886   2.426   1_554  S
Zr1563     O1903   2.432   1_554  S
Zr1563     O1566   2.379       .  S
Zr1563     O1922   2.386   1_554  S
Zr1563     O1569   2.386       .  S
Zr1564     O1883   2.410   1_554  S
Zr1564     O1906   2.422   1_554  S
Zr1564     O1565   2.378       .  S
Zr1564     O1567   2.379       .  S
Zr1564     O1924   2.380   1_554  S
O1565     Zr1914   2.370   1_554  S
O1565      H1573   0.966       .  S
O1566     Zr1914   2.374   1_554  S
O1568     Zr1917   2.386       .  S
O1568      H1572   0.966       .  S
O1569      H1574   0.966       .  S
O1570     Zr1918   2.380       .  S
O1587      C1589   1.288       .  A
O1588     Zr1979   2.433       .  S
O1588      C1589   1.288       .  A
O1590     Zr1602   2.443       .  S
O1590      C1592   1.288       .  A
O1591     Zr1626   2.422       .  S
O1591      C1592   1.286       .  A
O1593      C1595   1.288       .  A
O1594     Zr1625   2.433       .  S
O1594      C1595   1.288       .  A
O1596     Zr1599   2.442       .  S
O1596      C1598   1.288       .  A
O1597     Zr1980   2.422       .  S
O1597      C1598   1.286       .  A
Zr1599     O1600   2.434       .  S
Zr1599     O1601   2.436       .  S
Zr1599     O1960   2.371       .  S
Zr1599     O1629   2.371       .  S
O1601      H1646   0.990       .  S
Zr1602     O1603   2.435       .  S
Zr1602     O1604   2.434       .  S
Zr1602     O1606   2.372       .  S
Zr1602     O1632   2.371       .  S
O1603      H1644   0.990       .  S
O1603      H1647   0.990       .  S
O1605     Zr1625   2.382       .  S
O1606     Zr1953   2.371   1_554  S
O1606     Zr1626   2.382       .  S
O1606      H1633   0.966       .  S
O1607     Zr1619   2.441       .  S
O1607      C1609   1.288       .  A
O1608     Zr1980   2.418       .  S
O1608      C1609   1.285       .  A
O1610      C1612   1.287       .  A
O1611     Zr1625   2.425       .  S
O1611      C1612   1.287       .  A
O1613     Zr1622   2.441       .  S
O1613      C1615   1.288       .  A
O1614     Zr1626   2.418       .  S
O1614      C1615   1.285       .  A
O1616      C1618   1.287       .  A
O1617     Zr1979   2.425       .  S
O1617      C1618   1.287       .  A
Zr1619     O1620   2.435       .  S
Zr1619     O1621   2.434       .  S
Zr1619     O1981   2.370       .  S
Zr1619     O1629   2.370       .  S
O1620      H1640   0.990       .  S
O1620      H1645   0.990       .  S
O1621      H1641   0.990       .  S
Zr1622     O1623   2.434       .  S
Zr1622     O1624   2.435       .  S
Zr1622     O1627   2.369       .  S
Zr1622     O1632   2.370       .  S
O1624      H1638   0.990       .  S
O1624      H1648   0.990       .  S
Zr1625     O1942   2.433   1_554  S
Zr1625     O1971   2.425   1_554  S
Zr1625     O1628   2.383       .  S
Zr1625     O1630   2.385       .  S
Zr1625     O1985   2.386   1_554  S
Zr1626     O1951   2.422   1_554  S
Zr1626     O1962   2.418   1_554  S
Zr1626     O1627   2.383       .  S
Zr1626     O1983   2.381   1_554  S
Zr1626     O1632   2.381       .  S
O1627     Zr1973   2.370   1_554  S
O1627      H1635   0.966       .  S
O1629     Zr1980   2.381       .  S
O1630      H1634   0.966       .  S
O1631     Zr1979   2.386       .  S
O1631      H1636   0.966       .  S
O1649     Zr1661   2.445       .  S
O1649      C1651   1.288       .  A
O1650     Zr2041   2.437       .  S
O1650      C1651   1.289       .  A
O1652     Zr2372   2.446   1_545  S
O1652      C1654   1.289       .  A
O1653     Zr1688   2.414       .  S
O1653      C1654   1.284       .  A
O1655     Zr1664   2.444       .  S
O1655      C1657   1.289       .  A
O1656     Zr1687   2.437       .  S
O1656      C1657   1.289       .  A
O1658     Zr2369   2.446   1_545  S
O1658      C1660   1.289       .  A
O1659     Zr2042   2.415       .  S
O1659      C1660   1.284       .  A
Zr1661     O2366   2.446       .  S
Zr1661     O1662   2.434       .  S
Zr1661     O2371   2.436       .  S
Zr1661     O2021   2.376       .  S
Zr1661     O2730   2.373       .  S
Zr1661     O2399   2.370       .  S
Zr1661     O1693   2.372       .  S
O1662      H1705   0.990       .  S
O1663     Zr2369   2.436       .  S
O1663      H2412   0.990       .  S
O1663      H2416   0.990       .  S
Zr1664     O2360   2.446       .  S
Zr1664     O1665   2.435       .  S
Zr1664     O2374   2.435       .  S
Zr1664     O2376   2.373       .  S
Zr1664     O1667   2.375       .  S
Zr1664     O1692   2.372       .  S
Zr1664     O2402   2.371       .  S
O1665      H2414   0.990       .  S
O1665      H1709   0.990       .  S
O1666     Zr2372   2.435       .  S
O1666      H2407   0.990       .  S
O1667     Zr2015   2.376   1_554  S
O1667     Zr1687   2.382       .  S
O1668     Zr2723   2.373   1_544  S
O1668     Zr2372   2.373   1_545  S
O1668     Zr1688   2.382       .  S
O1668      H1695   0.966       .  S
O1669     Zr2389   2.441   1_545  S
O1669      C1671   1.288       .  A
O1670     Zr2042   2.413       .  S
O1670      C1671   1.284       .  A
O1672     Zr1684   2.429       .  S
O1672      C1674   1.286       .  A
O1673     Zr1687   2.431       .  S
O1673      C1674   1.289       .  A
O1675     Zr2392   2.440   1_545  S
O1675      C1677   1.288       .  A
O1676     Zr1688   2.413       .  S
O1676      C1677   1.284       .  A
O1678     Zr1681   2.430       .  S
O1678      C1680   1.286       .  A
O1679     Zr2041   2.430       .  S
O1679      C1680   1.288       .  A
Zr1681     O2377   2.441       .  S
Zr1681     O1682   2.435       .  S
Zr1681     O1683   2.434       .  S
Zr1681     O2751   2.369       .  S
Zr1681     O2044   2.372       .  S
Zr1681     O1693   2.371       .  S
Zr1681     O2399   2.367       .  S
O1682      H2410   0.990       .  S
O1682      H1707   0.990       .  S
O1683      H2411   0.990       .  S
Zr1684     O2383   2.440       .  S
Zr1684     O1685   2.433       .  S
Zr1684     O1686   2.435       .  S
Zr1684     O1690   2.372       .  S
Zr1684     O2397   2.368       .  S
Zr1684     O2402   2.367       .  S
Zr1684     O1692   2.371       .  S
O1685      H1701   0.990       .  S
O1686      H2408   0.990       .  S
O1686      H1710   0.990       .  S
Zr1687     O2004   2.437   1_554  S
Zr1687     O2033   2.430   1_554  S
Zr1687     O1690   2.382       .  S
Zr1687     O1692   2.387       .  S
Zr1687     O2047   2.388   1_554  S
Zr1688     O2013   2.415   1_554  S
Zr1688     O2024   2.413   1_554  S
Zr1688     O1689   2.380       .  S
Zr1688     O2045   2.378   1_554  S
Zr1688     O1694   2.379       .  S
O1689     Zr2743   2.369   1_544  S
O1689     Zr2392   2.368   1_545  S
O1689      H1697   0.966       .  S
O1690     Zr2035   2.372   1_554  S
O1691     Zr2369   2.370   1_545  S
O1691     Zr2389   2.367   1_545  S
O1691     Zr2042   2.378       .  S
O1692      H1696   0.966       .  S
O1693     Zr2041   2.388       .  S
O1693      H1698   0.966       .  S
O1694     Zr2372   2.371   1_545  S
O1694     Zr2392   2.367   1_545  S
H1699      O2374   0.990       .  S
H1700      O2394   0.990   1_545  S
H1702      O2390   0.990   1_545  S
H1703      O2391   0.990   1_545  S
H1704      O2371   0.990       .  S
H1706      O2373   0.990   1_545  S
H1708      O2371   0.990       .  S
C1711      C1712   1.412       .  A
C1711      C1716   1.403       .  A
C1711     Br1718   1.936       .  S
C1712      C1713   1.411       .  A
C1713      C1714   1.407       .  A
C1713     Br1720   1.932       .  S
C1714      C1715   1.411       .  A
C1714     Br1719   1.932       .  S
C1715      C1716   1.412       .  A
C1716     Br1717   1.936       .  S
C1721      C1722   1.411       .  A
C1721      C1726   1.404       .  A
C1721     Br1728   1.934       .  S
C1722      C1723   1.410       .  A
C1723      C1724   1.406       .  A
C1723     Br1730   1.931       .  S
C1724      C1725   1.410       .  A
C1724     Br1729   1.931       .  S
C1725      C1726   1.411       .  A
C1726     Br1727   1.934       .  S
C1731      C1732   1.412       .  A
C1731      C1736   1.407       .  A
C1731     Br1738   1.933       .  S
C1732      C1733   1.414       .  A
C1733      C1734   1.404       .  A
C1733     Br1740   1.938       .  S
C1734      C1735   1.414       .  A
C1734     Br1739   1.938       .  S
C1735      C1736   1.412       .  A
C1736     Br1737   1.933       .  S
C1741      C1742   1.409       .  A
C1741      C1746   1.404       .  A
C1741     Br1748   1.928       .  S
C1742      C1743   1.411       .  A
C1743      C1744   1.412       .  A
C1743     Br1750   1.928       .  S
C1744      C1745   1.411       .  A
C1744     Br1749   1.928       .  S
C1745      C1746   1.409       .  A
C1746     Br1747   1.928       .  S
C1751      C1752   1.416       .  A
C1751      C1756   1.415       .  A
C1751     Br1758   1.933       .  S
C1752      C1753   1.420       .  A
C1753      C1754   1.410       .  A
C1753     Br1760   1.938       .  S
C1754      C1755   1.420       .  A
C1754     Br1759   1.938       .  S
C1755      C1756   1.416       .  A
C1756     Br1757   1.933       .  S
C1761      C1762   1.411       .  A
C1761      C1766   1.413       .  A
C1761     Br1768   1.927       .  S
C1762      C1763   1.408       .  A
C1763      C1764   1.405       .  A
C1763     Br1770   1.925       .  S
C1764      C1765   1.408       .  A
C1764     Br1769   1.925       .  S
C1765      C1766   1.411       .  A
C1766     Br1767   1.927       .  S
C1771      C1772   1.405       .  A
C1771      C1776   1.401       .  A
C1771      C2119   1.485       .  S
C1772      C1773   1.407       .  A
C1772      H1777   1.084       .  S
C1773      C1774   1.406       .  A
C1773      C2011   1.480       .  S
C1774      C1775   1.407       .  A
C1774      H1778   1.084       .  S
C1775      C1776   1.405       .  A
C1775      C1881   1.476       .  S
C1776      H1779   1.084       .  S
C1780      C1781   1.405       .  A
C1780      C1785   1.401       .  A
C1780      C2116   1.485       .  S
C1781      C1782   1.407       .  A
C1781      H1786   1.084       .  S
C1782      C1783   1.406       .  A
C1782      C2005   1.480       .  S
C1783      C1784   1.407       .  A
C1783      H1787   1.084       .  S
C1784      C1785   1.404       .  A
C1784      C1887   1.476       .  S
C1785      H1788   1.084       .  S
C1789      C1790   1.405       .  A
C1789      C1794   1.410       .  A
C1789      C2106   1.503       .  S
C1790      C1791   1.405       .  A
C1790      H1795   1.083       .  S
C1791      C1792   1.401       .  A
C1791      C2034   1.475       .  S
C1792      C1793   1.401       .  A
C1792      H1796   1.084       .  S
C1793      C1794   1.409       .  A
C1793      C1943   1.475       .  S
C1794      H1797   1.083       .  S
C1798      C1799   1.405       .  A
C1798      C1803   1.410       .  A
C1798      C2109   1.503       .  S
C1799      C1800   1.405       .  A
C1799      H1804   1.083       .  S
C1800      C1801   1.401       .  A
C1800      C2028   1.475       .  S
C1801      C1802   1.401       .  A
C1801      H1805   1.084       .  S
C1802      C1803   1.408       .  A
C1802      C1949   1.475       .  S
C1803      H1806   1.083       .  S
C1807      C1808   1.403       .  A
C1807      C1812   1.403       .  A
C1807      C2099   1.484       .  S
C1808      C1809   1.406       .  A
C1808      H1813   1.084       .  S
C1809      C1810   1.403       .  A
C1809      C1966   1.472       .  S
C1810      C1811   1.402       .  A
C1810      H1814   1.084       .  S
C1811      C1812   1.404       .  A
C1811      C1910   1.472       .  S
C1812      H1815   1.084       .  S
C1816      C1817   1.403       .  A
C1816      C1821   1.403       .  A
C1816      C2096   1.484       .  S
C1817      C1818   1.406       .  A
C1817      H1822   1.084       .  S
C1818      C1819   1.403       .  A
C1818      C1972   1.472       .  S
C1819      C1820   1.402       .  A
C1819      H1823   1.084       .  S
C1820      C1821   1.404       .  A
C1820      C1904   1.472       .  S
C1821      H1824   1.084       .  S
C1825      C1826   1.402       .  A
C1825      C1830   1.403       .  A
C1825      C2089   1.482       .  S
C1826      C1827   1.401       .  A
C1826      H1831   1.084       .  S
C1827      C1828   1.404       .  A
C1827      C1963   1.472       .  S
C1828      C1829   1.404       .  A
C1828      H1832   1.084       .  S
C1829      C1830   1.401       .  A
C1829      C2014   1.470       .  S
C1830      H1833   1.084       .  S
C1834      C1835   1.402       .  A
C1834      C1839   1.403       .  A
C1834      C2086   1.482       .  S
C1835      C1836   1.401       .  A
C1835      H1840   1.084       .  S
C1836      C1837   1.404       .  A
C1836      C1969   1.471       .  S
C1837      C1838   1.404       .  A
C1837      H1841   1.084       .  S
C1838      C1839   1.401       .  A
C1838      C2008   1.470       .  S
C1839      H1842   1.084       .  S
C1843      C1844   1.401       .  A
C1843      C1848   1.401       .  A
C1843      C2079   1.476       .  S
C1844      C1845   1.401       .  A
C1844      H1849   1.084       .  S
C1845      C1846   1.406       .  A
C1845      C1890   1.473       .  S
C1846      C1847   1.405       .  A
C1846      H1850   1.084       .  S
C1847      C1848   1.401       .  A
C1847      C1946   1.472       .  S
C1848      H1851   1.084       .  S
C1852      C1853   1.401       .  A
C1852      C1857   1.401       .  A
C1852      C2076   1.476       .  S
C1853      C1854   1.401       .  A
C1853      H1858   1.084       .  S
C1854      C1855   1.406       .  A
C1854      C1884   1.473       .  S
C1855      C1856   1.404       .  A
C1855      H1859   1.084       .  S
C1856      C1857   1.401       .  A
C1856      C1952   1.472       .  S
C1857      H1860   1.084       .  S
C1861      C1862   1.401       .  A
C1861      C1866   1.401       .  A
C1861      C2069   1.478       .  S
C1862      C1863   1.402       .  A
C1862      H1867   1.084       .  S
C1863      C1864   1.402       .  A
C1863      C1907   1.469       .  S
C1864      C1865   1.404       .  A
C1864      H1868   1.084       .  S
C1865      C1866   1.401       .  A
C1865      C2025   1.470       .  S
C1866      H1869   1.084       .  S
C1870      C1871   1.401       .  A
C1870      C1875   1.401       .  A
C1870      C2066   1.478       .  S
C1871      C1872   1.401       .  A
C1871      H1876   1.084       .  S
C1872      C1873   1.404       .  A
C1872      C2031   1.470       .  S
C1873      C1874   1.403       .  A
C1873      H1877   1.084       .  S
C1874      C1875   1.402       .  A
C1874      C1901   1.469       .  S
C1875      H1878   1.084       .  S
O1879     Zr1891   2.448       .  S
O1879      C1881   1.289       .  A
O1880     Zr1917   2.426       .  S
O1880      C1881   1.287       .  A
O1882     Zr1894   2.453       .  S
O1882      C1884   1.291       .  A
O1883      C1884   1.284       .  A
O1885     Zr1894   2.447       .  S
O1885      C1887   1.290       .  A
O1886      C1887   1.287       .  A
O1888     Zr1891   2.452       .  S
O1888      C1890   1.291       .  A
O1889     Zr1918   2.411       .  S
O1889      C1890   1.284       .  A
Zr1891     O1892   2.434       .  S
Zr1891     O1893   2.436       .  S
Zr1891     O1897   2.375       .  S
Zr1891     O1898   2.371       .  S
Zr1891     O1921   2.371       .  S
Zr1891     O1923   2.372       .  S
O1892      H1935   0.990       .  S
O1893      H1934   0.990       .  S
O1893      H1938   0.990       .  S
Zr1894     O1895   2.435       .  S
Zr1894     O1896   2.435       .  S
Zr1894     O1922   2.371       .  S
Zr1894     O1924   2.371       .  S
O1895      H1936   0.990       .  S
O1895      H1939   0.990       .  S
O1896      H1929   0.990       .  S
O1897     Zr1917   2.385       .  S
O1898     Zr1918   2.385       .  S
O1898      H1925   0.966       .  S
O1899     Zr1911   2.434       .  S
O1899      C1901   1.286       .  A
O1900     Zr1918   2.422       .  S
O1900      C1901   1.286       .  A
O1902     Zr1914   2.429       .  S
O1902      C1904   1.286       .  A
O1903      C1904   1.288       .  A
O1905     Zr1914   2.434       .  S
O1905      C1907   1.286       .  A
O1906      C1907   1.285       .  A
O1908     Zr1911   2.429       .  S
O1908      C1910   1.286       .  A
O1909     Zr1917   2.432       .  S
O1909      C1910   1.288       .  A
Zr1911     O1912   2.435       .  S
Zr1911     O1913   2.434       .  S
Zr1911     O1919   2.370       .  S
Zr1911     O1920   2.374       .  S
Zr1911     O1923   2.368       .  S
Zr1911     O1921   2.368       .  S
O1912      H1932   0.990       .  S
O1912      H1937   0.990       .  S
O1913      H1933   0.990       .  S
Zr1914     O1915   2.434       .  S
Zr1914     O1916   2.436       .  S
Zr1914     O1924   2.368       .  S
Zr1914     O1922   2.367       .  S
O1915      H1931   0.990       .  S
O1916      H1930   0.990       .  S
O1916      H1940   0.990       .  S
Zr1917     O1920   2.379       .  S
Zr1917     O1923   2.386       .  S
Zr1918     O1919   2.378       .  S
Zr1918     O1921   2.379       .  S
O1919      H1927   0.966       .  S
O1922      H1926   0.966       .  S
O1923      H1928   0.966       .  S
O1941      C1943   1.288       .  A
O1942      C1943   1.288       .  A
O1944     Zr1956   2.443       .  S
O1944      C1946   1.288       .  A
O1945     Zr1980   2.422       .  S
O1945      C1946   1.286       .  A
O1947      C1949   1.288       .  A
O1948     Zr1979   2.433       .  S
O1948      C1949   1.288       .  A
O1950     Zr1953   2.442       .  S
O1950      C1952   1.288       .  A
O1951      C1952   1.286       .  A
Zr1953     O1954   2.434       .  S
Zr1953     O1955   2.436       .  S
Zr1953     O1983   2.371       .  S
O1955      H2000   0.990       .  S
Zr1956     O1957   2.435       .  S
Zr1956     O1958   2.434       .  S
Zr1956     O1960   2.372       .  S
Zr1956     O1986   2.371       .  S
O1957      H1998   0.990       .  S
O1957      H2001   0.990       .  S
O1959     Zr1979   2.382       .  S
O1960     Zr1980   2.382       .  S
O1960      H1987   0.966       .  S
O1961     Zr1973   2.441       .  S
O1961      C1963   1.288       .  A
O1962      C1963   1.285       .  A
O1964      C1966   1.287       .  A
O1965     Zr1979   2.425       .  S
O1965      C1966   1.287       .  A
O1967     Zr1976   2.441       .  S
O1967      C1969   1.288       .  A
O1968     Zr1980   2.418       .  S
O1968      C1969   1.285       .  A
O1970      C1972   1.287       .  A
O1971      C1972   1.287       .  A
Zr1973     O1974   2.435       .  S
Zr1973     O1975   2.434       .  S
Zr1973     O1983   2.370       .  S
O1974      H1994   0.990       .  S
O1974      H1999   0.990       .  S
O1975      H1995   0.990       .  S
Zr1976     O1977   2.434       .  S
Zr1976     O1978   2.435       .  S
Zr1976     O1981   2.369       .  S
Zr1976     O1986   2.370       .  S
O1978      H1992   0.990       .  S
O1978      H2002   0.990       .  S
Zr1979     O1982   2.383       .  S
Zr1979     O1984   2.385       .  S
Zr1980     O1981   2.383       .  S
Zr1980     O1986   2.381       .  S
O1981      H1989   0.966       .  S
O1984      H1988   0.966       .  S
O1985      H1990   0.966       .  S
O2003     Zr2015   2.445       .  S
O2003      C2005   1.288       .  A
O2004      C2005   1.289       .  A
O2006     Zr2726   2.446   1_545  S
O2006      C2008   1.289       .  A
O2007     Zr2042   2.414       .  S
O2007      C2008   1.284       .  A
O2009     Zr2018   2.444       .  S
O2009      C2011   1.289       .  A
O2010     Zr2041   2.437       .  S
O2010      C2011   1.289       .  A
O2012     Zr2723   2.446   1_545  S
O2012      C2014   1.289       .  A
O2013      C2014   1.284       .  A
Zr2015     O2720   2.446       .  S
Zr2015     O2016   2.434       .  S
Zr2015     O2725   2.436       .  S
Zr2015     O2376   2.373   1_556  S
Zr2015     O2753   2.370       .  S
Zr2015     O2047   2.372       .  S
O2016      H2059   0.990       .  S
O2017     Zr2723   2.436       .  S
O2017      H2766   0.990       .  S
O2017      H2770   0.990       .  S
Zr2018     O2714   2.446       .  S
Zr2018     O2019   2.435       .  S
Zr2018     O2728   2.435       .  S
Zr2018     O2730   2.373       .  S
Zr2018     O2021   2.375       .  S
Zr2018     O2046   2.372       .  S
Zr2018     O2756   2.371       .  S
O2019      H2768   0.990       .  S
O2019      H2063   0.990       .  S
O2020     Zr2726   2.435       .  S
O2020      H2761   0.990       .  S
O2021     Zr2041   2.382       .  S
O2022     Zr2369   2.373   1_545  S
O2022     Zr2726   2.373   1_545  S
O2022     Zr2042   2.382       .  S
O2022      H2049   0.966       .  S
O2023     Zr2743   2.441   1_545  S
O2023      C2025   1.288       .  A
O2024      C2025   1.284       .  A
O2026     Zr2038   2.429       .  S
O2026      C2028   1.286       .  A
O2027     Zr2041   2.431       .  S
O2027      C2028   1.289       .  A
O2029     Zr2746   2.440   1_545  S
O2029      C2031   1.288       .  A
O2030     Zr2042   2.413       .  S
O2030      C2031   1.284       .  A
O2032     Zr2035   2.430       .  S
O2032      C2034   1.286       .  A
O2033      C2034   1.288       .  A
Zr2035     O2731   2.441       .  S
Zr2035     O2036   2.435       .  S
Zr2035     O2037   2.434       .  S
Zr2035     O2397   2.369   1_556  S
Zr2035     O2047   2.371       .  S
Zr2035     O2753   2.367       .  S
O2036      H2764   0.990       .  S
O2036      H2061   0.990       .  S
O2037      H2765   0.990       .  S
Zr2038     O2737   2.440       .  S
Zr2038     O2039   2.433       .  S
Zr2038     O2040   2.435       .  S
Zr2038     O2044   2.372       .  S
Zr2038     O2751   2.368       .  S
Zr2038     O2756   2.367       .  S
Zr2038     O2046   2.371       .  S
O2039      H2055   0.990       .  S
O2040      H2762   0.990       .  S
O2040      H2064   0.990       .  S
Zr2041     O2044   2.382       .  S
Zr2041     O2046   2.387       .  S
Zr2042     O2043   2.380       .  S
Zr2042     O2048   2.379       .  S
O2043     Zr2389   2.369   1_545  S
O2043     Zr2746   2.368   1_545  S
O2043      H2051   0.966       .  S
O2045     Zr2723   2.370   1_545  S
O2045     Zr2743   2.367   1_545  S
O2046      H2050   0.966       .  S
O2047      H2052   0.966       .  S
O2048     Zr2726   2.371   1_545  S
O2048     Zr2746   2.367   1_545  S
H2053      O2728   0.990       .  S
H2054      O2748   0.990   1_545  S
H2056      O2744   0.990   1_545  S
H2057      O2745   0.990   1_545  S
H2058      O2725   0.990       .  S
H2060      O2727   0.990   1_545  S
H2062      O2725   0.990       .  S
C2065      C2066   1.412       .  A
C2065      C2070   1.403       .  A
C2065     Br2072   1.936       .  S
C2066      C2067   1.411       .  A
C2067      C2068   1.407       .  A
C2067     Br2074   1.932       .  S
C2068      C2069   1.411       .  A
C2068     Br2073   1.932       .  S
C2069      C2070   1.412       .  A
C2070     Br2071   1.936       .  S
C2075      C2076   1.411       .  A
C2075      C2080   1.404       .  A
C2075     Br2082   1.934       .  S
C2076      C2077   1.410       .  A
C2077      C2078   1.406       .  A
C2077     Br2084   1.931       .  S
C2078      C2079   1.410       .  A
C2078     Br2083   1.931       .  S
C2079      C2080   1.411       .  A
C2080     Br2081   1.934       .  S
C2085      C2086   1.412       .  A
C2085      C2090   1.407       .  A
C2085     Br2092   1.933       .  S
C2086      C2087   1.414       .  A
C2087      C2088   1.404       .  A
C2087     Br2094   1.938       .  S
C2088      C2089   1.414       .  A
C2088     Br2093   1.938       .  S
C2089      C2090   1.412       .  A
C2090     Br2091   1.933       .  S
C2095      C2096   1.409       .  A
C2095      C2100   1.404       .  A
C2095     Br2102   1.928       .  S
C2096      C2097   1.411       .  A
C2097      C2098   1.412       .  A
C2097     Br2104   1.928       .  S
C2098      C2099   1.411       .  A
C2098     Br2103   1.928       .  S
C2099      C2100   1.409       .  A
C2100     Br2101   1.928       .  S
C2105      C2106   1.416       .  A
C2105      C2110   1.415       .  A
C2105     Br2112   1.933       .  S
C2106      C2107   1.420       .  A
C2107      C2108   1.410       .  A
C2107     Br2114   1.938       .  S
C2108      C2109   1.420       .  A
C2108     Br2113   1.938       .  S
C2109      C2110   1.416       .  A
C2110     Br2111   1.933       .  S
C2115      C2116   1.411       .  A
C2115      C2120   1.413       .  A
C2115     Br2122   1.927       .  S
C2116      C2117   1.408       .  A
C2117      C2118   1.405       .  A
C2117     Br2124   1.925       .  S
C2118      C2119   1.408       .  A
C2118     Br2123   1.925       .  S
C2119      C2120   1.411       .  A
C2120     Br2121   1.927       .  S
C2125      C2126   1.405       .  A
C2125      C2130   1.401       .  A
C2125      C2473   1.485       .  S
C2126      C2127   1.407       .  A
C2126      H2131   1.084       .  S
C2127      C2128   1.406       .  A
C2127      C2365   1.480       .  S
C2128      C2129   1.407       .  A
C2128      H2132   1.084       .  S
C2129      C2130   1.405       .  A
C2129      C2235   1.476       .  S
C2130      H2133   1.084       .  S
C2134      C2135   1.405       .  A
C2134      C2139   1.401       .  A
C2134      C2470   1.485       .  S
C2135      C2136   1.407       .  A
C2135      H2140   1.084       .  S
C2136      C2137   1.406       .  A
C2136      C2359   1.480       .  S
C2137      C2138   1.407       .  A
C2137      H2141   1.084       .  S
C2138      C2139   1.404       .  A
C2138      C2241   1.476       .  S
C2139      H2142   1.084       .  S
C2143      C2144   1.405       .  A
C2143      C2148   1.410       .  A
C2143      C2460   1.503       .  S
C2144      C2145   1.405       .  A
C2144      H2149   1.083       .  S
C2145      C2146   1.401       .  A
C2145      C2388   1.475       .  S
C2146      C2147   1.401       .  A
C2146      H2150   1.084       .  S
C2147      C2148   1.409       .  A
C2147      C2297   1.475       .  S
C2148      H2151   1.083       .  S
C2152      C2153   1.405       .  A
C2152      C2157   1.410       .  A
C2152      C2463   1.503       .  S
C2153      C2154   1.405       .  A
C2153      H2158   1.083       .  S
C2154      C2155   1.401       .  A
C2154      C2382   1.475       .  S
C2155      C2156   1.401       .  A
C2155      H2159   1.084       .  S
C2156      C2157   1.408       .  A
C2156      C2303   1.475       .  S
C2157      H2160   1.083       .  S
C2161      C2162   1.403       .  A
C2161      C2166   1.403       .  A
C2161      C2453   1.484       .  S
C2162      C2163   1.406       .  A
C2162      H2167   1.084       .  S
C2163      C2164   1.403       .  A
C2163      C2320   1.472       .  S
C2164      C2165   1.402       .  A
C2164      H2168   1.084       .  S
C2165      C2166   1.404       .  A
C2165      C2264   1.472       .  S
C2166      H2169   1.084       .  S
C2170      C2171   1.403       .  A
C2170      C2175   1.403       .  A
C2170      C2450   1.484       .  S
C2171      C2172   1.406       .  A
C2171      H2176   1.084       .  S
C2172      C2173   1.403       .  A
C2172      C2326   1.472       .  S
C2173      C2174   1.402       .  A
C2173      H2177   1.084       .  S
C2174      C2175   1.404       .  A
C2174      C2258   1.472       .  S
C2175      H2178   1.084       .  S
C2179      C2180   1.402       .  A
C2179      C2184   1.403       .  A
C2179      C2443   1.482       .  S
C2180      C2181   1.401       .  A
C2180      H2185   1.084       .  S
C2181      C2182   1.404       .  A
C2181      C2317   1.472       .  S
C2182      C2183   1.404       .  A
C2182      H2186   1.084       .  S
C2183      C2184   1.401       .  A
C2183      C2368   1.470       .  S
C2184      H2187   1.084       .  S
C2188      C2189   1.402       .  A
C2188      C2193   1.403       .  A
C2188      C2440   1.482       .  S
C2189      C2190   1.401       .  A
C2189      H2194   1.084       .  S
C2190      C2191   1.404       .  A
C2190      C2323   1.471       .  S
C2191      C2192   1.404       .  A
C2191      H2195   1.084       .  S
C2192      C2193   1.401       .  A
C2192      C2362   1.470       .  S
C2193      H2196   1.084       .  S
C2197      C2198   1.401       .  A
C2197      C2202   1.401       .  A
C2197      C2433   1.476       .  S
C2198      C2199   1.401       .  A
C2198      H2203   1.084       .  S
C2199      C2200   1.406       .  A
C2199      C2244   1.473       .  S
C2200      C2201   1.405       .  A
C2200      H2204   1.084       .  S
C2201      C2202   1.401       .  A
C2201      C2300   1.472       .  S
C2202      H2205   1.084       .  S
C2206      C2207   1.401       .  A
C2206      C2211   1.401       .  A
C2206      C2430   1.476       .  S
C2207      C2208   1.401       .  A
C2207      H2212   1.084       .  S
C2208      C2209   1.406       .  A
C2208      C2238   1.473       .  S
C2209      C2210   1.404       .  A
C2209      H2213   1.084       .  S
C2210      C2211   1.401       .  A
C2210      C2306   1.472       .  S
C2211      H2214   1.084       .  S
C2215      C2216   1.401       .  A
C2215      C2220   1.401       .  A
C2215      C2423   1.478       .  S
C2216      C2217   1.402       .  A
C2216      H2221   1.084       .  S
C2217      C2218   1.402       .  A
C2217      C2261   1.469       .  S
C2218      C2219   1.404       .  A
C2218      H2222   1.084       .  S
C2219      C2220   1.401       .  A
C2219      C2379   1.470       .  S
C2220      H2223   1.084       .  S
C2224      C2225   1.401       .  A
C2224      C2229   1.401       .  A
C2224      C2420   1.478       .  S
C2225      C2226   1.401       .  A
C2225      H2230   1.084       .  S
C2226      C2227   1.404       .  A
C2226      C2385   1.470       .  S
C2227      C2228   1.403       .  A
C2227      H2231   1.084       .  S
C2228      C2229   1.402       .  A
C2228      C2255   1.469       .  S
C2229      H2232   1.084       .  S
O2233     Zr2245   2.448       .  S
O2233      C2235   1.289       .  A
O2234     Zr2271   2.426       .  S
O2234      C2235   1.287       .  A
O2236     Zr2248   2.453       .  S
O2236      C2238   1.291       .  A
O2237     Zr2626   2.410       .  S
O2237      C2238   1.284       .  A
O2239     Zr2248   2.447       .  S
O2239      C2241   1.290       .  A
O2240     Zr2625   2.426       .  S
O2240      C2241   1.287       .  A
O2242     Zr2245   2.452       .  S
O2242      C2244   1.291       .  A
O2243     Zr2272   2.411       .  S
O2243      C2244   1.284       .  A
Zr2245     O2246   2.434       .  S
Zr2245     O2247   2.436       .  S
Zr2245     O2251   2.375       .  S
Zr2245     O2252   2.371       .  S
Zr2245     O2275   2.371       .  S
Zr2245     O2277   2.372       .  S
O2246      H2289   0.990       .  S
O2247      H2288   0.990       .  S
O2247      H2292   0.990       .  S
Zr2248     O2249   2.435       .  S
Zr2248     O2250   2.435       .  S
Zr2248     O2606   2.372       .  S
Zr2248     O2605   2.375       .  S
Zr2248     O2276   2.371       .  S
Zr2248     O2278   2.371       .  S
O2249      H2290   0.990       .  S
O2249      H2293   0.990       .  S
O2250      H2283   0.990       .  S
O2251     Zr2602   2.375   1_554  S
O2251     Zr2271   2.385       .  S
O2252     Zr2602   2.372   1_554  S
O2252     Zr2272   2.385       .  S
O2252      H2279   0.966       .  S
O2253     Zr2265   2.434       .  S
O2253      C2255   1.286       .  A
O2254     Zr2272   2.422       .  S
O2254      C2255   1.286       .  A
O2256     Zr2268   2.429       .  S
O2256      C2258   1.286       .  A
O2257     Zr2625   2.432       .  S
O2257      C2258   1.288       .  A
O2259     Zr2268   2.434       .  S
O2259      C2261   1.286       .  A
O2260     Zr2626   2.422       .  S
O2260      C2261   1.285       .  A
O2262     Zr2265   2.429       .  S
O2262      C2264   1.286       .  A
O2263     Zr2271   2.432       .  S
O2263      C2264   1.288       .  A
Zr2265     O2266   2.435       .  S
Zr2265     O2267   2.434       .  S
Zr2265     O2273   2.370       .  S
Zr2265     O2274   2.374       .  S
Zr2265     O2277   2.368       .  S
Zr2265     O2275   2.368       .  S
O2266      H2286   0.990       .  S
O2266      H2291   0.990       .  S
O2267      H2287   0.990       .  S
Zr2268     O2269   2.434       .  S
Zr2268     O2270   2.436       .  S
Zr2268     O2628   2.374       .  S
Zr2268     O2627   2.370       .  S
Zr2268     O2278   2.368       .  S
Zr2268     O2276   2.367       .  S
O2269      H2285   0.990       .  S
O2270      H2284   0.990       .  S
O2270      H2294   0.990       .  S
Zr2271     O2594   2.426   1_554  S
Zr2271     O2611   2.432   1_554  S
Zr2271     O2274   2.379       .  S
Zr2271     O2630   2.386   1_554  S
Zr2271     O2277   2.386       .  S
Zr2272     O2591   2.410   1_554  S
Zr2272     O2614   2.422   1_554  S
Zr2272     O2273   2.378       .  S
Zr2272     O2275   2.379       .  S
Zr2272     O2632   2.380   1_554  S
O2273     Zr2622   2.370   1_554  S
O2273      H2281   0.966       .  S
O2274     Zr2622   2.374   1_554  S
O2276     Zr2625   2.386       .  S
O2276      H2280   0.966       .  S
O2277      H2282   0.966       .  S
O2278     Zr2626   2.380       .  S
O2295      C2297   1.288       .  A
O2296     Zr2687   2.433       .  S
O2296      C2297   1.288       .  A
O2298     Zr2310   2.443       .  S
O2298      C2300   1.288       .  A
O2299     Zr2334   2.422       .  S
O2299      C2300   1.286       .  A
O2301      C2303   1.288       .  A
O2302     Zr2333   2.433       .  S
O2302      C2303   1.288       .  A
O2304     Zr2307   2.442       .  S
O2304      C2306   1.288       .  A
O2305     Zr2688   2.422       .  S
O2305      C2306   1.286       .  A
Zr2307     O2308   2.434       .  S
Zr2307     O2309   2.436       .  S
Zr2307     O2668   2.371       .  S
Zr2307     O2337   2.371       .  S
O2309      H2354   0.990       .  S
Zr2310     O2311   2.435       .  S
Zr2310     O2312   2.434       .  S
Zr2310     O2314   2.372       .  S
Zr2310     O2340   2.371       .  S
O2311      H2352   0.990       .  S
O2311      H2355   0.990       .  S
O2313     Zr2333   2.382       .  S
O2314     Zr2661   2.371   1_554  S
O2314     Zr2334   2.382       .  S
O2314      H2341   0.966       .  S
O2315     Zr2327   2.441       .  S
O2315      C2317   1.288       .  A
O2316     Zr2688   2.418       .  S
O2316      C2317   1.285       .  A
O2318      C2320   1.287       .  A
O2319     Zr2333   2.425       .  S
O2319      C2320   1.287       .  A
O2321     Zr2330   2.441       .  S
O2321      C2323   1.288       .  A
O2322     Zr2334   2.418       .  S
O2322      C2323   1.285       .  A
O2324      C2326   1.287       .  A
O2325     Zr2687   2.425       .  S
O2325      C2326   1.287       .  A
Zr2327     O2328   2.435       .  S
Zr2327     O2329   2.434       .  S
Zr2327     O2689   2.370       .  S
Zr2327     O2337   2.370       .  S
O2328      H2348   0.990       .  S
O2328      H2353   0.990       .  S
O2329      H2349   0.990       .  S
Zr2330     O2331   2.434       .  S
Zr2330     O2332   2.435       .  S
Zr2330     O2335   2.369       .  S
Zr2330     O2340   2.370       .  S
O2332      H2346   0.990       .  S
O2332      H2356   0.990       .  S
Zr2333     O2650   2.433   1_554  S
Zr2333     O2679   2.425   1_554  S
Zr2333     O2336   2.383       .  S
Zr2333     O2338   2.385       .  S
Zr2333     O2693   2.386   1_554  S
Zr2334     O2659   2.422   1_554  S
Zr2334     O2670   2.418   1_554  S
Zr2334     O2335   2.383       .  S
Zr2334     O2691   2.381   1_554  S
Zr2334     O2340   2.381       .  S
O2335     Zr2681   2.370   1_554  S
O2335      H2343   0.966       .  S
O2337     Zr2688   2.381       .  S
O2338      H2342   0.966       .  S
O2339     Zr2687   2.386       .  S
O2339      H2344   0.966       .  S
O2357     Zr2369   2.445       .  S
O2357      C2359   1.288       .  A
O2358     Zr2749   2.437       .  S
O2358      C2359   1.289       .  A
O2360      C2362   1.289       .  A
O2361     Zr2396   2.414       .  S
O2361      C2362   1.284       .  A
O2363     Zr2372   2.444       .  S
O2363      C2365   1.289       .  A
O2364     Zr2395   2.437       .  S
O2364      C2365   1.289       .  A
O2366      C2368   1.289       .  A
O2367     Zr2750   2.415       .  S
O2367      C2368   1.284       .  A
Zr2369     O2370   2.434       .  S
Zr2369     O2729   2.376       .  S
Zr2369     O2401   2.372       .  S
O2370      H2413   0.990       .  S
Zr2372     O2373   2.435       .  S
Zr2372     O2375   2.375       .  S
Zr2372     O2400   2.372       .  S
O2373      H2417   0.990       .  S
O2375     Zr2723   2.376   1_554  S
O2375     Zr2395   2.382       .  S
O2376     Zr2396   2.382       .  S
O2376      H2403   0.966       .  S
O2377      C2379   1.288       .  A
O2378     Zr2750   2.413       .  S
O2378      C2379   1.284       .  A
O2380     Zr2392   2.429       .  S
O2380      C2382   1.286       .  A
O2381     Zr2395   2.431       .  S
O2381      C2382   1.289       .  A
O2383      C2385   1.288       .  A
O2384     Zr2396   2.413       .  S
O2384      C2385   1.284       .  A
O2386     Zr2389   2.430       .  S
O2386      C2388   1.286       .  A
O2387     Zr2749   2.430       .  S
O2387      C2388   1.288       .  A
Zr2389     O2390   2.435       .  S
Zr2389     O2391   2.434       .  S
Zr2389     O2752   2.372       .  S
Zr2389     O2401   2.371       .  S
O2390      H2415   0.990   1_565  S
Zr2392     O2393   2.433       .  S
Zr2392     O2394   2.435       .  S
Zr2392     O2398   2.372       .  S
Zr2392     O2400   2.371       .  S
O2393      H2409   0.990       .  S
O2394      H2418   0.990   1_565  S
Zr2395     O2712   2.437   1_554  S
Zr2395     O2741   2.430   1_554  S
Zr2395     O2398   2.382       .  S
Zr2395     O2400   2.387       .  S
Zr2395     O2755   2.388   1_554  S
Zr2396     O2721   2.415   1_554  S
Zr2396     O2732   2.413   1_554  S
Zr2396     O2397   2.380       .  S
Zr2396     O2753   2.378   1_554  S
Zr2396     O2402   2.379       .  S
O2397      H2405   0.966       .  S
O2398     Zr2743   2.372   1_554  S
O2399     Zr2750   2.378       .  S
O2400      H2404   0.966       .  S
O2401     Zr2749   2.388       .  S
O2401      H2406   0.966       .  S
C2419      C2420   1.412       .  A
C2419      C2424   1.403       .  A
C2419     Br2426   1.936       .  S
C2420      C2421   1.411       .  A
C2421      C2422   1.407       .  A
C2421     Br2428   1.932       .  S
C2422      C2423   1.411       .  A
C2422     Br2427   1.932       .  S
C2423      C2424   1.412       .  A
C2424     Br2425   1.936       .  S
C2429      C2430   1.411       .  A
C2429      C2434   1.404       .  A
C2429     Br2436   1.934       .  S
C2430      C2431   1.410       .  A
C2431      C2432   1.406       .  A
C2431     Br2438   1.931       .  S
C2432      C2433   1.410       .  A
C2432     Br2437   1.931       .  S
C2433      C2434   1.411       .  A
C2434     Br2435   1.934       .  S
C2439      C2440   1.412       .  A
C2439      C2444   1.407       .  A
C2439     Br2446   1.933       .  S
C2440      C2441   1.414       .  A
C2441      C2442   1.404       .  A
C2441     Br2448   1.938       .  S
C2442      C2443   1.414       .  A
C2442     Br2447   1.938       .  S
C2443      C2444   1.412       .  A
C2444     Br2445   1.933       .  S
C2449      C2450   1.409       .  A
C2449      C2454   1.404       .  A
C2449     Br2456   1.928       .  S
C2450      C2451   1.411       .  A
C2451      C2452   1.412       .  A
C2451     Br2458   1.928       .  S
C2452      C2453   1.411       .  A
C2452     Br2457   1.928       .  S
C2453      C2454   1.409       .  A
C2454     Br2455   1.928       .  S
C2459      C2460   1.416       .  A
C2459      C2464   1.415       .  A
C2459     Br2466   1.933       .  S
C2460      C2461   1.420       .  A
C2461      C2462   1.410       .  A
C2461     Br2468   1.938       .  S
C2462      C2463   1.420       .  A
C2462     Br2467   1.938       .  S
C2463      C2464   1.416       .  A
C2464     Br2465   1.933       .  S
C2469      C2470   1.411       .  A
C2469      C2474   1.413       .  A
C2469     Br2476   1.927       .  S
C2470      C2471   1.408       .  A
C2471      C2472   1.405       .  A
C2471     Br2478   1.925       .  S
C2472      C2473   1.408       .  A
C2472     Br2477   1.925       .  S
C2473      C2474   1.411       .  A
C2474     Br2475   1.927       .  S
C2479      C2480   1.405       .  A
C2479      C2484   1.401       .  A
C2479      C2827   1.485       .  S
C2480      C2481   1.407       .  A
C2480      H2485   1.084       .  S
C2481      C2482   1.406       .  A
C2481      C2719   1.480       .  S
C2482      C2483   1.407       .  A
C2482      H2486   1.084       .  S
C2483      C2484   1.405       .  A
C2483      C2589   1.476       .  S
C2484      H2487   1.084       .  S
C2488      C2489   1.405       .  A
C2488      C2493   1.401       .  A
C2488      C2824   1.485       .  S
C2489      C2490   1.407       .  A
C2489      H2494   1.084       .  S
C2490      C2491   1.406       .  A
C2490      C2713   1.480       .  S
C2491      C2492   1.407       .  A
C2491      H2495   1.084       .  S
C2492      C2493   1.404       .  A
C2492      C2595   1.476       .  S
C2493      H2496   1.084       .  S
C2497      C2498   1.405       .  A
C2497      C2502   1.410       .  A
C2497      C2814   1.503       .  S
C2498      C2499   1.405       .  A
C2498      H2503   1.083       .  S
C2499      C2500   1.401       .  A
C2499      C2742   1.475       .  S
C2500      C2501   1.401       .  A
C2500      H2504   1.084       .  S
C2501      C2502   1.409       .  A
C2501      C2651   1.475       .  S
C2502      H2505   1.083       .  S
C2506      C2507   1.405       .  A
C2506      C2511   1.410       .  A
C2506      C2817   1.503       .  S
C2507      C2508   1.405       .  A
C2507      H2512   1.083       .  S
C2508      C2509   1.401       .  A
C2508      C2736   1.475       .  S
C2509      C2510   1.401       .  A
C2509      H2513   1.084       .  S
C2510      C2511   1.408       .  A
C2510      C2657   1.475       .  S
C2511      H2514   1.083       .  S
C2515      C2516   1.403       .  A
C2515      C2520   1.403       .  A
C2515      C2807   1.484       .  S
C2516      C2517   1.406       .  A
C2516      H2521   1.084       .  S
C2517      C2518   1.403       .  A
C2517      C2674   1.472       .  S
C2518      C2519   1.402       .  A
C2518      H2522   1.084       .  S
C2519      C2520   1.404       .  A
C2519      C2618   1.472       .  S
C2520      H2523   1.084       .  S
C2524      C2525   1.403       .  A
C2524      C2529   1.403       .  A
C2524      C2804   1.484       .  S
C2525      C2526   1.406       .  A
C2525      H2530   1.084       .  S
C2526      C2527   1.403       .  A
C2526      C2680   1.472       .  S
C2527      C2528   1.402       .  A
C2527      H2531   1.084       .  S
C2528      C2529   1.404       .  A
C2528      C2612   1.472       .  S
C2529      H2532   1.084       .  S
C2533      C2534   1.402       .  A
C2533      C2538   1.403       .  A
C2533      C2797   1.482       .  S
C2534      C2535   1.401       .  A
C2534      H2539   1.084       .  S
C2535      C2536   1.404       .  A
C2535      C2671   1.472       .  S
C2536      C2537   1.404       .  A
C2536      H2540   1.084       .  S
C2537      C2538   1.401       .  A
C2537      C2722   1.470       .  S
C2538      H2541   1.084       .  S
C2542      C2543   1.402       .  A
C2542      C2547   1.403       .  A
C2542      C2794   1.482       .  S
C2543      C2544   1.401       .  A
C2543      H2548   1.084       .  S
C2544      C2545   1.404       .  A
C2544      C2677   1.471       .  S
C2545      C2546   1.404       .  A
C2545      H2549   1.084       .  S
C2546      C2547   1.401       .  A
C2546      C2716   1.470       .  S
C2547      H2550   1.084       .  S
C2551      C2552   1.401       .  A
C2551      C2556   1.401       .  A
C2551      C2787   1.476       .  S
C2552      C2553   1.401       .  A
C2552      H2557   1.084       .  S
C2553      C2554   1.406       .  A
C2553      C2598   1.473       .  S
C2554      C2555   1.405       .  A
C2554      H2558   1.084       .  S
C2555      C2556   1.401       .  A
C2555      C2654   1.472       .  S
C2556      H2559   1.084       .  S
C2560      C2561   1.401       .  A
C2560      C2565   1.401       .  A
C2560      C2784   1.476       .  S
C2561      C2562   1.401       .  A
C2561      H2566   1.084       .  S
C2562      C2563   1.406       .  A
C2562      C2592   1.473       .  S
C2563      C2564   1.404       .  A
C2563      H2567   1.084       .  S
C2564      C2565   1.401       .  A
C2564      C2660   1.472       .  S
C2565      H2568   1.084       .  S
C2569      C2570   1.401       .  A
C2569      C2574   1.401       .  A
C2569      C2777   1.478       .  S
C2570      C2571   1.402       .  A
C2570      H2575   1.084       .  S
C2571      C2572   1.402       .  A
C2571      C2615   1.469       .  S
C2572      C2573   1.404       .  A
C2572      H2576   1.084       .  S
C2573      C2574   1.401       .  A
C2573      C2733   1.470       .  S
C2574      H2577   1.084       .  S
C2578      C2579   1.401       .  A
C2578      C2583   1.401       .  A
C2578      C2774   1.478       .  S
C2579      C2580   1.401       .  A
C2579      H2584   1.084       .  S
C2580      C2581   1.404       .  A
C2580      C2739   1.470       .  S
C2581      C2582   1.403       .  A
C2581      H2585   1.084       .  S
C2582      C2583   1.402       .  A
C2582      C2609   1.469       .  S
C2583      H2586   1.084       .  S
O2587     Zr2599   2.448       .  S
O2587      C2589   1.289       .  A
O2588     Zr2625   2.426       .  S
O2588      C2589   1.287       .  A
O2590     Zr2602   2.453       .  S
O2590      C2592   1.291       .  A
O2591      C2592   1.284       .  A
O2593     Zr2602   2.447       .  S
O2593      C2595   1.290       .  A
O2594      C2595   1.287       .  A
O2596     Zr2599   2.452       .  S
O2596      C2598   1.291       .  A
O2597     Zr2626   2.411       .  S
O2597      C2598   1.284       .  A
Zr2599     O2600   2.434       .  S
Zr2599     O2601   2.436       .  S
Zr2599     O2605   2.375       .  S
Zr2599     O2606   2.371       .  S
Zr2599     O2629   2.371       .  S
Zr2599     O2631   2.372       .  S
O2600      H2643   0.990       .  S
O2601      H2642   0.990       .  S
O2601      H2646   0.990       .  S
Zr2602     O2603   2.435       .  S
Zr2602     O2604   2.435       .  S
Zr2602     O2630   2.371       .  S
Zr2602     O2632   2.371       .  S
O2603      H2644   0.990       .  S
O2603      H2647   0.990       .  S
O2604      H2637   0.990       .  S
O2605     Zr2625   2.385       .  S
O2606     Zr2626   2.385       .  S
O2606      H2633   0.966       .  S
O2607     Zr2619   2.434       .  S
O2607      C2609   1.286       .  A
O2608     Zr2626   2.422       .  S
O2608      C2609   1.286       .  A
O2610     Zr2622   2.429       .  S
O2610      C2612   1.286       .  A
O2611      C2612   1.288       .  A
O2613     Zr2622   2.434       .  S
O2613      C2615   1.286       .  A
O2614      C2615   1.285       .  A
O2616     Zr2619   2.429       .  S
O2616      C2618   1.286       .  A
O2617     Zr2625   2.432       .  S
O2617      C2618   1.288       .  A
Zr2619     O2620   2.435       .  S
Zr2619     O2621   2.434       .  S
Zr2619     O2627   2.370       .  S
Zr2619     O2628   2.374       .  S
Zr2619     O2631   2.368       .  S
Zr2619     O2629   2.368       .  S
O2620      H2640   0.990       .  S
O2620      H2645   0.990       .  S
O2621      H2641   0.990       .  S
Zr2622     O2623   2.434       .  S
Zr2622     O2624   2.436       .  S
Zr2622     O2632   2.368       .  S
Zr2622     O2630   2.367       .  S
O2623      H2639   0.990       .  S
O2624      H2638   0.990       .  S
O2624      H2648   0.990       .  S
Zr2625     O2628   2.379       .  S
Zr2625     O2631   2.386       .  S
Zr2626     O2627   2.378       .  S
Zr2626     O2629   2.379       .  S
O2627      H2635   0.966       .  S
O2630      H2634   0.966       .  S
O2631      H2636   0.966       .  S
O2649      C2651   1.288       .  A
O2650      C2651   1.288       .  A
O2652     Zr2664   2.443       .  S
O2652      C2654   1.288       .  A
O2653     Zr2688   2.422       .  S
O2653      C2654   1.286       .  A
O2655      C2657   1.288       .  A
O2656     Zr2687   2.433       .  S
O2656      C2657   1.288       .  A
O2658     Zr2661   2.442       .  S
O2658      C2660   1.288       .  A
O2659      C2660   1.286       .  A
Zr2661     O2662   2.434       .  S
Zr2661     O2663   2.436       .  S
Zr2661     O2691   2.371       .  S
O2663      H2708   0.990       .  S
Zr2664     O2665   2.435       .  S
Zr2664     O2666   2.434       .  S
Zr2664     O2668   2.372       .  S
Zr2664     O2694   2.371       .  S
O2665      H2706   0.990       .  S
O2665      H2709   0.990       .  S
O2667     Zr2687   2.382       .  S
O2668     Zr2688   2.382       .  S
O2668      H2695   0.966       .  S
O2669     Zr2681   2.441       .  S
O2669      C2671   1.288       .  A
O2670      C2671   1.285       .  A
O2672      C2674   1.287       .  A
O2673     Zr2687   2.425       .  S
O2673      C2674   1.287       .  A
O2675     Zr2684   2.441       .  S
O2675      C2677   1.288       .  A
O2676     Zr2688   2.418       .  S
O2676      C2677   1.285       .  A
O2678      C2680   1.287       .  A
O2679      C2680   1.287       .  A
Zr2681     O2682   2.435       .  S
Zr2681     O2683   2.434       .  S
Zr2681     O2691   2.370       .  S
O2682      H2702   0.990       .  S
O2682      H2707   0.990       .  S
O2683      H2703   0.990       .  S
Zr2684     O2685   2.434       .  S
Zr2684     O2686   2.435       .  S
Zr2684     O2689   2.369       .  S
Zr2684     O2694   2.370       .  S
O2686      H2700   0.990       .  S
O2686      H2710   0.990       .  S
Zr2687     O2690   2.383       .  S
Zr2687     O2692   2.385       .  S
Zr2688     O2689   2.383       .  S
Zr2688     O2694   2.381       .  S
O2689      H2697   0.966       .  S
O2692      H2696   0.966       .  S
O2693      H2698   0.966       .  S
O2711     Zr2723   2.445       .  S
O2711      C2713   1.288       .  A
O2712      C2713   1.289       .  A
O2714      C2716   1.289       .  A
O2715     Zr2750   2.414       .  S
O2715      C2716   1.284       .  A
O2717     Zr2726   2.444       .  S
O2717      C2719   1.289       .  A
O2718     Zr2749   2.437       .  S
O2718      C2719   1.289       .  A
O2720      C2722   1.289       .  A
O2721      C2722   1.284       .  A
Zr2723     O2724   2.434       .  S
Zr2723     O2755   2.372       .  S
O2724      H2767   0.990       .  S
Zr2726     O2727   2.435       .  S
Zr2726     O2729   2.375       .  S
Zr2726     O2754   2.372       .  S
O2727      H2771   0.990       .  S
O2729     Zr2749   2.382       .  S
O2730     Zr2750   2.382       .  S
O2730      H2757   0.966       .  S
O2731      C2733   1.288       .  A
O2732      C2733   1.284       .  A
O2734     Zr2746   2.429       .  S
O2734      C2736   1.286       .  A
O2735     Zr2749   2.431       .  S
O2735      C2736   1.289       .  A
O2737      C2739   1.288       .  A
O2738     Zr2750   2.413       .  S
O2738      C2739   1.284       .  A
O2740     Zr2743   2.430       .  S
O2740      C2742   1.286       .  A
O2741      C2742   1.288       .  A
Zr2743     O2744   2.435       .  S
Zr2743     O2745   2.434       .  S
Zr2743     O2755   2.371       .  S
O2744      H2769   0.990   1_565  S
Zr2746     O2747   2.433       .  S
Zr2746     O2748   2.435       .  S
Zr2746     O2752   2.372       .  S
Zr2746     O2754   2.371       .  S
O2747      H2763   0.990       .  S
O2748      H2772   0.990   1_565  S
Zr2749     O2752   2.382       .  S
Zr2749     O2754   2.387       .  S
Zr2750     O2751   2.380       .  S
Zr2750     O2756   2.379       .  S
O2751      H2759   0.966       .  S
O2754      H2758   0.966       .  S
O2755      H2760   0.966       .  S
C2773      C2774   1.412       .  A
C2773      C2778   1.403       .  A
C2773     Br2780   1.936       .  S
C2774      C2775   1.411       .  A
C2775      C2776   1.407       .  A
C2775     Br2782   1.932       .  S
C2776      C2777   1.411       .  A
C2776     Br2781   1.932       .  S
C2777      C2778   1.412       .  A
C2778     Br2779   1.936       .  S
C2783      C2784   1.411       .  A
C2783      C2788   1.404       .  A
C2783     Br2790   1.934       .  S
C2784      C2785   1.410       .  A
C2785      C2786   1.406       .  A
C2785     Br2792   1.931       .  S
C2786      C2787   1.410       .  A
C2786     Br2791   1.931       .  S
C2787      C2788   1.411       .  A
C2788     Br2789   1.934       .  S
C2793      C2794   1.412       .  A
C2793      C2798   1.407       .  A
C2793     Br2800   1.933       .  S
C2794      C2795   1.414       .  A
C2795      C2796   1.404       .  A
C2795     Br2802   1.938       .  S
C2796      C2797   1.414       .  A
C2796     Br2801   1.938       .  S
C2797      C2798   1.412       .  A
C2798     Br2799   1.933       .  S
C2803      C2804   1.409       .  A
C2803      C2808   1.404       .  A
C2803     Br2810   1.928       .  S
C2804      C2805   1.411       .  A
C2805      C2806   1.412       .  A
C2805     Br2812   1.928       .  S
C2806      C2807   1.411       .  A
C2806     Br2811   1.928       .  S
C2807      C2808   1.409       .  A
C2808     Br2809   1.928       .  S
C2813      C2814   1.416       .  A
C2813      C2818   1.415       .  A
C2813     Br2820   1.933       .  S
C2814      C2815   1.420       .  A
C2815      C2816   1.410       .  A
C2815     Br2822   1.938       .  S
C2816      C2817   1.420       .  A
C2816     Br2821   1.938       .  S
C2817      C2818   1.416       .  A
C2818     Br2819   1.933       .  S
C2823      C2824   1.411       .  A
C2823      C2828   1.413       .  A
C2823     Br2830   1.927       .  S
C2824      C2825   1.408       .  A
C2825      C2826   1.405       .  A
C2825     Br2832   1.925       .  S
C2826      C2827   1.408       .  A
C2826     Br2831   1.925       .  S
C2827      C2828   1.411       .  A
C2828     Br2829   1.927       .  S
