geometry optimzed in LAMMPS
_audit_creation_date              2020-12-01 
_audit_creation_method            'lammps2cif' 
_symmetry_space_group_name_H-M    'P1' 
_symmetry_Int_Tables_number       1 
_symmetry_cell_setting            triclinic 
loop_ 
_symmetry_equiv_pos_as_xyz 
  x,y,z 
_cell_length_a                    25.96422837 
_cell_length_b                    20.83501549848303 
_cell_length_c                    20.755074367366497 
_cell_angle_alpha                 90.07562667461697 
_cell_angle_beta                  90.03806974411741 
_cell_angle_gamma                 89.95534289790162 
loop_ 
_atom_site_label 
_atom_site_type_symbol 
_atom_site_fract_x 
_atom_site_fract_y 
_atom_site_fract_z 
_atom_site_charge 
O1          O  0.41863285  0.36824407  0.37624905    -0.71300
O2          O  0.35634062  0.42295668  0.43088096    -0.50200
C3          C  0.37128118  0.38129383  0.38880801     0.82400
O4          O  0.09209523  0.37587483  0.13100413    -0.55900
O5          O  0.15409155  0.42783250  0.07345824    -0.48900
C6          C  0.13938444  0.38693817  0.11634138     0.74400
O7          O  0.41996409  0.37097032  0.12831343    -0.70500
O8          O  0.35763766  0.42611815  0.07383679    -0.51000
C9          C  0.37256639  0.38382894  0.11527177     0.80400
O10         O  0.09125053  0.36860412  0.37681521    -0.55600
O11         O  0.15345236  0.42480318  0.43010998    -0.48700
C12         C  0.13859084  0.38238804  0.38872456     0.77000
Zr13       Zr  0.50485781  0.39586902  0.41327707     2.54700
O14         O  0.50063739  0.28704445  0.45162431    -0.76200
O15         O  0.01132364  0.35280913  0.30413892    -0.89600
Zr16       Zr  0.50554817  0.41046081  0.10174430     2.64700
O17         O  0.50521302  0.30008214  0.13992334    -0.94500
O18         O  0.00228873  0.44493310  0.21280171    -0.76600
O19         O  0.45429756  0.40091878  0.00762962    -0.80000
O20         O  0.05611013  0.40105874  0.00714957    -2.14700
O21         O  0.09088827  0.12024304  0.36987659    -0.63300
O22         O  0.15303191  0.06782811  0.42699809    -0.47900
C23         C  0.13820795  0.10892862  0.38430390     0.75400
O24         O  0.41828788  0.12535163  0.12535334    -0.56300
O25         O  0.35642124  0.07000343  0.07045658    -0.48200
C26         C  0.37103128  0.11192696  0.11254442     0.77200
O27         O  0.09056892  0.12715929  0.12311727    -0.67600
O28         O  0.15305759  0.07094067  0.07035680    -0.46300
C29         C  0.13800400  0.11343790  0.11150257     0.78600
O30         O  0.41877643  0.12104527  0.37126568    -0.63000
O31         O  0.35665570  0.06724867  0.42713525    -0.50200
C32         C  0.37142452  0.10902570  0.38515357     0.77000
Zr33       Zr  0.00489193  0.08343098  0.39856167     2.77500
O34         O  0.49921915  0.19353388  0.36024588    -0.93700
O35         O  0.50792404  0.04741226  0.28797812    -0.74500
Zr36       Zr  0.00413741  0.09820409  0.08723930     2.70100
O37         O  0.99818314  0.20630287  0.04713499    -0.75800
O38         O  0.49920884  0.14077881  0.19666581    -0.94900
Zr39       Zr  0.40387253  0.99664847  0.00008769     2.21500
Zr40       Zr  0.10590717  0.49760839  0.50049583     2.11100
O41         O  0.05536079  0.09368779  0.49337052    -2.43600
O42         O  0.45374076  0.09245770  0.49271261    -0.75600
O43         O  0.05583798  0.48972272  0.40411216    -0.67800
O44         O  0.45415399  0.00365430  0.09634627    -2.28700
O45         O  0.45386320  0.98985226  0.40316567    -2.24900
O46         O  0.05595491  0.50482283  0.09731718    -0.69500
H47         H  0.07788338  0.36348591  0.00896659     0.82500
H48         H  0.43228397  0.00533968  0.13390094     0.83500
H49         H  0.07680673  0.13150353  0.49158175     0.85800
H50         H  0.43223273  0.98811816  0.36531748     0.83400
H51         H  0.46532355  0.44321492  0.22440829     0.46400
H52         H  0.03478709  0.14603509  0.21287053     0.45400
H53         H  0.46157126  0.21806111  0.05357761     0.45100
H54         H  0.03431961  0.21161524  0.36349476     0.43000
H55         H  0.04510218  0.04157734  0.27903100     0.46100
H56         H  0.47602078  0.34216490  0.28981420     0.40900
H57         H  0.46354683  0.27630447  0.44884829     0.47000
H58         H  0.03829757  0.28090740  0.12615330     0.43400
H59         H  0.49273281  0.19012188  0.31343698     0.48400
H60         H  0.02832459  0.31052042  0.30820797     0.47100
H61         H  0.50835889  0.30357402  0.18723339     0.47200
H62         H  0.98637478  0.18523300  0.19185323     0.47600
C63         C  0.17779445  0.14769893  0.34770133     0.01500
C64         C  0.17816015  0.34487563  0.35067481     0.01500
C65         C  0.17890795  0.34787216  0.15285822     0.01500
C66         C  0.17758982  0.15069452  0.14979834     0.01500
C67         C  0.33162330  0.14735968  0.34831536     0.01500
C68         C  0.33132553  0.14917871  0.15048408     0.01500
C69         C  0.33276687  0.34607011  0.15251282     0.01500
C70         C  0.33183677  0.34428473  0.35034488     0.01500
C71         C  0.33899201  0.35643249  0.22242364    -0.09300
C72         C  0.33852416  0.35598260  0.28074804    -0.10800
C73         C  0.33819632  0.21866110  0.14034891    -0.09300
C74         C  0.33884969  0.27670754  0.14087108    -0.10800
C75         C  0.33744771  0.13751218  0.22011926    -0.09300
C76         C  0.33756590  0.13706314  0.27841590    -0.10800
C77         C  0.33823555  0.27472510  0.36055659    -0.09300
C78         C  0.33829830  0.21665649  0.36001978    -0.10800
C79         C  0.23119378  0.13455754  0.13358000    -0.09300
C80         C  0.27768831  0.13389822  0.13376914    -0.10800
C81         C  0.17133757  0.22043966  0.13975828    -0.09300
C82         C  0.17168293  0.27858625  0.14069044    -0.10800
C83         C  0.27917031  0.36259091  0.13650876    -0.09300
C84         C  0.23265549  0.36320251  0.13667083    -0.10800
C85         C  0.17282071  0.35771654  0.22280938    -0.09300
C86         C  0.17219261  0.35677807  0.28108716    -0.10800
C87         C  0.23177957  0.36037123  0.36708253    -0.09300
C88         C  0.27824969  0.36020108  0.36661933    -0.10800
C89         C  0.17165916  0.13792540  0.27769147    -0.09300
C90         C  0.17130199  0.13884820  0.21938312    -0.10800
C91         C  0.23143957  0.13171912  0.36399182    -0.09300
C92         C  0.27795461  0.13155569  0.36443705    -0.10900
C93         C  0.17107872  0.21705373  0.35987980    -0.09300
C94         C  0.17141448  0.27519838  0.36070064    -0.10800
O95         O  0.41863284  0.36824433  0.87624894    -0.71300
O96         O  0.35634048  0.42295665  0.93088094    -0.50200
C97         C  0.37128115  0.38129392  0.88880795     0.82400
O98         O  0.09209521  0.37587483  0.63100404    -0.55900
O99         O  0.15409156  0.42783270  0.57345837    -0.48900
C100        C  0.13938441  0.38693826  0.61634138     0.74400
O101        O  0.41996406  0.37097034  0.62831331    -0.70500
O102        O  0.35763757  0.42611833  0.57383694    -0.51000
C103        C  0.37256633  0.38382900  0.61527177     0.80400
O104        O  0.09125053  0.36860424  0.87681529    -0.55600
O105        O  0.15345242  0.42480322  0.93011000    -0.48700
C106        C  0.13859088  0.38238813  0.88872460     0.77000
Zr107      Zr  0.50485788  0.39586909  0.91327696     2.54700
O108        O  0.50063774  0.28704465  0.95162447    -0.76200
O109        O  0.01132398  0.35280918  0.80413899    -0.89600
Zr110      Zr  0.50554819  0.41046075  0.60174440     2.64700
O111        O  0.50521287  0.30008207  0.63992316    -0.94500
O112        O  0.00228850  0.44493273  0.71280190    -0.76600
O113        O  0.45429753  0.40091880  0.50762983    -0.80000
O114        O  0.05611042  0.40105831  0.50714976    -2.14700
O115        O  0.09088838  0.12024313  0.86987681    -0.63300
O116        O  0.15303205  0.06782819  0.92699827    -0.47900
C117        C  0.13820806  0.10892871  0.88430410     0.75400
O118        O  0.41828795  0.12535175  0.62535351    -0.56300
O119        O  0.35642136  0.07000350  0.57045673    -0.48200
C120        C  0.37103139  0.11192703  0.61254457     0.77200
O121        O  0.09056886  0.12715953  0.62311704    -0.67600
O122        O  0.15305754  0.07094052  0.57035703    -0.46300
C123        C  0.13800394  0.11343797  0.61150256     0.78600
O124        O  0.41877628  0.12104522  0.87126554    -0.63000
O125        O  0.35665559  0.06724834  0.92713491    -0.50200
C126        C  0.37142440  0.10902552  0.88515337     0.77000
Zr127      Zr  0.00489200  0.08343102  0.89856165     2.77500
O128        O  0.49921944  0.19353403  0.86024553    -0.93700
O129        O  0.50792383  0.04741242  0.78797807    -0.74500
Zr130      Zr  0.00413738  0.09820419  0.58723912     2.70100
O131        O  0.99818283  0.20630308  0.54713515    -0.75800
O132        O  0.49920907  0.14077852  0.69666570    -0.94900
Zr133      Zr  0.40387258  0.99664854  0.50008781     2.21500
Zr134      Zr  0.10590719  0.49760837  0.00049578     2.11100
O135        O  0.05536065  0.09368767  0.99337060    -2.43600
O136        O  0.45374064  0.09245777  0.99271278    -0.75600
O137        O  0.05583802  0.48972274  0.90411208    -0.67800
O138        O  0.45415372  0.00365440  0.59634684    -2.28700
O139        O  0.45386343  0.98985219  0.90316594    -2.24900
O140        O  0.05595480  0.50482271  0.59731722    -0.69500
H141        H  0.07788375  0.36348531  0.50896681     0.82500
H142        H  0.43228351  0.00533986  0.63390174     0.83500
H143        H  0.07680648  0.13150336  0.99158174     0.85800
H144        H  0.43223309  0.98811795  0.86531787     0.83400
H145        H  0.46532375  0.44321510  0.72440828     0.46400
H146        H  0.03478662  0.14603514  0.71287025     0.45400
H147        H  0.46157144  0.21806131  0.55357773     0.45100
H148        H  0.03431919  0.21161534  0.86349470     0.43000
H149        H  0.04510246  0.04157744  0.77903081     0.46100
H150        H  0.47602054  0.34216483  0.78981427     0.40900
H151        H  0.46354713  0.27630462  0.94884847     0.47000
H152        H  0.03829785  0.28090751  0.62615325     0.43400
H153        H  0.49273320  0.19012192  0.81343673     0.48400
H154        H  0.02832488  0.31052037  0.80820816     0.47100
H155        H  0.50835887  0.30357398  0.68723319     0.47200
H156        H  0.98637445  0.18523343  0.69185293     0.47600
C157        C  0.17779444  0.14769897  0.84770136     0.01500
C158        C  0.17816019  0.34487568  0.85067480     0.01500
C159        C  0.17890794  0.34787223  0.65285819     0.01500
C160        C  0.17758979  0.15069452  0.64979841     0.01500
C161        C  0.33162319  0.14735965  0.84831538     0.01500
C162        C  0.33132558  0.14917877  0.65048409     0.01500
C163        C  0.33276689  0.34607001  0.65251278     0.01500
C164        C  0.33183687  0.34428468  0.85034484     0.01500
C165        C  0.33899212  0.35643226  0.72242361    -0.09300
C166        C  0.33852435  0.35598247  0.78074803    -0.10800
C167        C  0.33819641  0.21866107  0.64034874    -0.09300
C168        C  0.33884971  0.27670752  0.64087086    -0.10800
C169        C  0.33744776  0.13751233  0.72011930    -0.09300
C170        C  0.33756578  0.13706321  0.77841592    -0.10800
C171        C  0.33823566  0.27472506  0.86055675    -0.09300
C172        C  0.33829828  0.21665645  0.86001993    -0.10800
C173        C  0.23119376  0.13455739  0.63358014    -0.09300
C174        C  0.27768834  0.13389824  0.63376915    -0.10800
C175        C  0.17133772  0.22043972  0.63975831    -0.09300
C176        C  0.17168306  0.27858632  0.64069030    -0.10800
C177        C  0.27917029  0.36259078  0.63650877    -0.09300
C178        C  0.23265548  0.36320262  0.63667088    -0.10800
C179        C  0.17282058  0.35771648  0.72280936    -0.09300
C180        C  0.17219249  0.35677790  0.78108713    -0.10800
C181        C  0.23177966  0.36037136  0.86708230    -0.09300
C182        C  0.27824978  0.36020111  0.86661911    -0.10800
C183        C  0.17165907  0.13792523  0.77769153    -0.09300
C184        C  0.17130182  0.13884817  0.71938315    -0.10800
C185        C  0.23143952  0.13171925  0.86399193    -0.09300
C186        C  0.27795453  0.13155571  0.86443715    -0.10900
C187        C  0.17107870  0.21705381  0.85987970    -0.09300
C188        C  0.17141457  0.27519846  0.86070076    -0.10800
O189        O  0.41863287  0.86824391  0.37624914    -0.71300
O190        O  0.35634066  0.92295673  0.43088085    -0.50200
C191        C  0.37128120  0.88129375  0.38880803     0.82400
O192        O  0.09209525  0.87587491  0.13100421    -0.55900
O193        O  0.15409159  0.92783236  0.07345813    -0.48900
C194        C  0.13938446  0.88693816  0.11634139     0.74400
O195        O  0.41996407  0.87097021  0.12831337    -0.70500
O196        O  0.35763768  0.92611828  0.07383691    -0.51000
C197        C  0.37256638  0.88382896  0.11527180     0.80400
O198        O  0.09125054  0.86860436  0.37681523    -0.55600
O199        O  0.15345242  0.92480336  0.43010994    -0.48700
C200        C  0.13859085  0.88238825  0.38872454     0.77000
Zr201      Zr  0.50485779  0.89586911  0.41327708     2.54700
O202        O  0.50063738  0.78704444  0.45162425    -0.76200
O203        O  0.01132360  0.85280952  0.30413892    -0.89600
Zr204      Zr  0.50554817  0.91046069  0.10174428     2.64700
O205        O  0.50521311  0.80008193  0.13992329    -0.94500
O206        O  0.00228874  0.94493289  0.21280171    -0.76600
O207        O  0.45429761  0.90091884  0.00762959    -0.80000
O208        O  0.05611027  0.90105834  0.00714958    -2.14700
O209        O  0.09088827  0.62024314  0.36987660    -0.63300
O210        O  0.15303193  0.56782825  0.42699810    -0.47900
C211        C  0.13820796  0.60892877  0.38430390     0.75400
O212        O  0.41828792  0.62535184  0.12535333    -0.56300
O213        O  0.35642128  0.57000364  0.07045656    -0.48200
C214        C  0.37103132  0.61192717  0.11254441     0.77200
O215        O  0.09056893  0.62715921  0.12311728    -0.67600
O216        O  0.15305764  0.57094066  0.07035685    -0.46300
C217        C  0.13800402  0.61343790  0.11150257     0.78600
O218        O  0.41877636  0.62104511  0.37126564    -0.63000
O219        O  0.35665566  0.56724850  0.42713522    -0.50200
C220        C  0.37142448  0.60902552  0.38515354     0.77000
Zr221      Zr  0.00489194  0.58343093  0.39856166     2.77500
O222        O  0.49921935  0.69353403  0.36024598    -0.93700
O223        O  0.50792402  0.54741248  0.28797807    -0.74500
Zr224      Zr  0.00413739  0.59820401  0.08723935     2.70100
O225        O  0.99818322  0.70630269  0.04713495    -0.75800
O226        O  0.49920884  0.64077861  0.19666582    -0.94900
Zr227      Zr  0.40387248  0.49664849  0.00008770     2.21500
Zr228      Zr  0.10590718  0.99760832  0.50049586     2.11100
O229        O  0.05536080  0.59368794  0.49337051    -2.43600
O230        O  0.45374076  0.59245761  0.49271267    -0.75600
O231        O  0.05583799  0.98972276  0.40411215    -0.67800
O232        O  0.45415394  0.50365427  0.09634627    -2.28700
O233        O  0.45386314  0.48985209  0.40316567    -2.24900
O234        O  0.05595484  0.00482277  0.09731715    -0.69500
H235        H  0.07788356  0.86348533  0.00896656     0.82500
H236        H  0.43228393  0.50533963  0.13390094     0.83500
H237        H  0.07680668  0.63150375  0.49158175     0.85800
H238        H  0.43223268  0.48811791  0.36531747     0.83400
H239        H  0.46532364  0.94321477  0.22440823     0.46400
H240        H  0.03478699  0.64603541  0.21287043     0.45400
H241        H  0.46157135  0.71806100  0.05357771     0.45100
H242        H  0.03431968  0.71161537  0.36349472     0.43000
H243        H  0.04510229  0.54157754  0.27903095     0.46100
H244        H  0.47602073  0.84216504  0.28981421     0.40900
H245        H  0.46354682  0.77630442  0.44884843     0.47000
H246        H  0.03829769  0.78090726  0.12615330     0.43400
H247        H  0.49273286  0.69012209  0.31343721     0.48400
H248        H  0.02832467  0.81052083  0.30820797     0.47100
H249        H  0.50835889  0.80357380  0.18723332     0.47200
H250        H  0.98637471  0.68523333  0.19185309     0.47600
C251        C  0.17779445  0.64769908  0.34770132     0.01500
C252        C  0.17816013  0.84487580  0.35067481     0.01500
C253        C  0.17890796  0.84787218  0.15285823     0.01500
C254        C  0.17758984  0.65069460  0.14979833     0.01500
C255        C  0.33162331  0.64735956  0.34831535     0.01500
C256        C  0.33132553  0.64917882  0.15048408     0.01500
C257        C  0.33276683  0.84607015  0.15251283     0.01500
C258        C  0.33183678  0.84428467  0.35034489     0.01500
C259        C  0.33899200  0.85643246  0.22242367    -0.09300
C260        C  0.33852419  0.85598262  0.28074806    -0.10800
C261        C  0.33819621  0.71866119  0.14034888    -0.09300
C262        C  0.33884954  0.77670763  0.14087104    -0.10800
C263        C  0.33744774  0.63751231  0.22011925    -0.09300
C264        C  0.33756591  0.63706303  0.27841590    -0.10800
C265        C  0.33823553  0.77472499  0.36055656    -0.09300
C266        C  0.33829837  0.71665637  0.36001976    -0.10800
C267        C  0.23119379  0.63455749  0.13358002    -0.09300
C268        C  0.27768833  0.63389815  0.13376917    -0.10800
C269        C  0.17133762  0.72043975  0.13975822    -0.09300
C270        C  0.17168298  0.77858632  0.14069038    -0.10800
C271        C  0.27917029  0.86259098  0.13650877    -0.09300
C272        C  0.23265548  0.86320260  0.13667087    -0.10800
C273        C  0.17282064  0.85771640  0.22280938    -0.09300
C274        C  0.17219245  0.85677800  0.28108715    -0.10800
C275        C  0.23177958  0.86037148  0.36708244    -0.09300
C276        C  0.27824970  0.86020119  0.36661932    -0.10800
C277        C  0.17165919  0.63792543  0.27769146    -0.09300
C278        C  0.17130200  0.63884834  0.21938311    -0.10800
C279        C  0.23143957  0.63171934  0.36399184    -0.09300
C280        C  0.27795460  0.63155577  0.36443706    -0.10900
C281        C  0.17107871  0.71705390  0.35987976    -0.09300
C282        C  0.17141449  0.77519856  0.36070072    -0.10800
O283        O  0.41863284  0.86824417  0.87624901    -0.71300
O284        O  0.35634053  0.92295672  0.93088084    -0.50200
C285        C  0.37128116  0.88129390  0.88880794     0.82400
O286        O  0.09209519  0.87587466  0.63100404    -0.55900
O287        O  0.15409155  0.92783250  0.57345836    -0.48900
C288        C  0.13938440  0.88693806  0.61634138     0.74400
O289        O  0.41996409  0.87097021  0.62831323    -0.70500
O290        O  0.35763763  0.92611842  0.57383702    -0.51000
C291        C  0.37256637  0.88382901  0.61527175     0.80400
O292        O  0.09125049  0.86860402  0.87681532    -0.55600
O293        O  0.15345230  0.92480325  0.93010987    -0.48700
C294        C  0.13859081  0.88238804  0.88872459     0.77000
Zr295      Zr  0.50485791  0.89586908  0.91327696     2.54700
O296        O  0.50063775  0.78704460  0.95162443    -0.76200
O297        O  0.01132400  0.85280902  0.80413901    -0.89600
Zr298      Zr  0.50554820  0.91046086  0.60174446     2.64700
O299        O  0.50521295  0.80008203  0.63992306    -0.94500
O300        O  0.00228851  0.94493295  0.71280190    -0.76600
O301        O  0.45429758  0.90091892  0.50762985    -0.80000
O302        O  0.05611037  0.90105840  0.50714978    -2.14700
O303        O  0.09088839  0.62024322  0.86987683    -0.63300
O304        O  0.15303206  0.56782832  0.92699828    -0.47900
C305        C  0.13820806  0.60892880  0.88430408     0.75400
O306        O  0.41828798  0.62535166  0.62535361    -0.56300
O307        O  0.35642137  0.57000366  0.57045662    -0.48200
C308        C  0.37103140  0.61192704  0.61254458     0.77200
O309        O  0.09056886  0.62715942  0.62311711    -0.67600
O310        O  0.15305758  0.57094067  0.57035691    -0.46300
C311        C  0.13800395  0.61343797  0.61150255     0.78600
O312        O  0.41877632  0.62104514  0.87126548    -0.63000
O313        O  0.35665559  0.56724851  0.92713502    -0.50200
C314        C  0.37142442  0.60902557  0.88515339     0.77000
Zr315      Zr  0.00489201  0.58343093  0.89856164     2.77500
O316        O  0.49921938  0.69353384  0.86024551    -0.93700
O317        O  0.50792385  0.54741262  0.78797800    -0.74500
Zr318      Zr  0.00413740  0.59820404  0.58723916     2.70100
O319        O  0.99818285  0.70630288  0.54713514    -0.75800
O320        O  0.49920910  0.64077872  0.69666566    -0.94900
Zr321      Zr  0.40387256  0.49664849  0.50008784     2.21500
Zr322      Zr  0.10590715  0.99760830  0.00049580     2.11100
O323        O  0.05536048  0.59368740  0.99337062    -2.43600
O324        O  0.45374069  0.59245768  0.99271278    -0.75600
O325        O  0.05583801  0.98972277  0.90411209    -0.67800
O326        O  0.45415374  0.50365425  0.59634684    -2.28700
O327        O  0.45386341  0.48985218  0.90316595    -2.24900
O328        O  0.05595480  0.00482286  0.59731721    -0.69500
H329        H  0.07788372  0.86348541  0.50896681     0.82500
H330        H  0.43228353  0.50533965  0.63390172     0.83500
H331        H  0.07680625  0.63150291  0.99158175     0.85800
H332        H  0.43223307  0.48811806  0.86531788     0.83400
H333        H  0.46532379  0.94321493  0.72440838     0.46400
H334        H  0.03478664  0.64603523  0.71287029     0.45400
H335        H  0.46157152  0.71806104  0.55357762     0.45100
H336        H  0.03431911  0.71161521  0.86349478     0.43000
H337        H  0.04510248  0.54157765  0.77903076     0.46100
H338        H  0.47602055  0.84216465  0.78981429     0.40900
H339        H  0.46354716  0.77630448  0.94884844     0.47000
H340        H  0.03829789  0.78090737  0.62615318     0.43400
H341        H  0.49273323  0.69012171  0.81343666     0.48400
H342        H  0.02832488  0.81052021  0.80820825     0.47100
H343        H  0.50835886  0.80357381  0.68723309     0.47200
H344        H  0.98637462  0.68523367  0.69185279     0.47600
C345        C  0.17779446  0.64769901  0.84770135     0.01500
C346        C  0.17816018  0.84487564  0.85067482     0.01500
C347        C  0.17890796  0.84787211  0.65285819     0.01500
C348        C  0.17758980  0.65069446  0.64979843     0.01500
C349        C  0.33162321  0.64735963  0.84831537     0.01500
C350        C  0.33132555  0.64917873  0.65048411     0.01500
C351        C  0.33276688  0.84607011  0.65251279     0.01500
C352        C  0.33183683  0.84428473  0.85034483     0.01500
C353        C  0.33899207  0.85643248  0.72242361    -0.09300
C354        C  0.33852420  0.85598267  0.78074803    -0.10800
C355        C  0.33819638  0.71866110  0.64034882    -0.09300
C356        C  0.33884968  0.77670755  0.64087092    -0.10800
C357        C  0.33744761  0.63751216  0.72011930    -0.09300
C358        C  0.33756574  0.63706307  0.77841593    -0.10800
C359        C  0.33823561  0.77472507  0.86055668    -0.09300
C360        C  0.33829827  0.71665645  0.86001988    -0.10800
C361        C  0.23119377  0.63455741  0.63358011    -0.09300
C362        C  0.27768835  0.63389818  0.63376908    -0.10800
C363        C  0.17133772  0.72043961  0.63975835    -0.09300
C364        C  0.17168313  0.77858619  0.64069030    -0.10800
C365        C  0.27917030  0.86259099  0.63650875    -0.09300
C366        C  0.23265548  0.86320270  0.63667089    -0.10800
C367        C  0.17282060  0.85771636  0.72280937    -0.09300
C368        C  0.17219251  0.85677793  0.78108715    -0.10800
C369        C  0.23177965  0.86037131  0.86708236    -0.09300
C370        C  0.27824977  0.86020120  0.86661920    -0.10800
C371        C  0.17165909  0.63792528  0.77769152    -0.09300
C372        C  0.17130184  0.63884808  0.71938315    -0.10800
C373        C  0.23143955  0.63171932  0.86399193    -0.09300
C374        C  0.27795456  0.63155568  0.86443716    -0.10900
C375        C  0.17107870  0.71705379  0.85987970    -0.09300
C376        C  0.17141458  0.77519845  0.86070073    -0.10800
O377        O  0.91863284  0.36824414  0.37624914    -0.71300
O378        O  0.85634052  0.42295669  0.43088095    -0.50200
C379        C  0.87128116  0.38129386  0.38880801     0.82400
O380        O  0.59209520  0.37587483  0.13100414    -0.55900
O381        O  0.65409154  0.42783248  0.07345826    -0.48900
C382        C  0.63938440  0.38693814  0.11634139     0.74400
O383        O  0.91996410  0.37097036  0.12831339    -0.70500
O384        O  0.85763765  0.42611817  0.07383676    -0.51000
C385        C  0.87256638  0.38382895  0.11527173     0.80400
O386        O  0.59125047  0.36860407  0.37681519    -0.55600
O387        O  0.65345225  0.42480317  0.43010998    -0.48700
C388        C  0.63859078  0.38238801  0.38872457     0.77000
Zr389      Zr  0.00485788  0.39586900  0.41327708     2.54700
O390        O  0.00063767  0.28704448  0.45162432    -0.76200
O391        O  0.51132399  0.35280914  0.30413900    -0.89600
Zr392      Zr  0.00554819  0.41046083  0.10174432     2.64700
O393        O  0.00521284  0.30008216  0.13992333    -0.94500
O394        O  0.50228845  0.44493309  0.21280175    -0.76600
O395        O  0.95429752  0.40091873  0.00762968    -0.80000
O396        O  0.55611024  0.40105871  0.00714961    -2.14700
O397        O  0.59088841  0.12024311  0.36987691    -0.63300
O398        O  0.65303211  0.06782801  0.42699815    -0.47900
C399        C  0.63820809  0.10892860  0.38430406     0.75400
O400        O  0.91828792  0.12535168  0.12535339    -0.56300
O401        O  0.85642135  0.07000343  0.07045657    -0.48200
C402        C  0.87103136  0.11192696  0.11254445     0.77200
O403        O  0.59056887  0.12715936  0.12311733    -0.67600
O404        O  0.65305752  0.07094071  0.07035683    -0.46300
C405        C  0.63800394  0.11343795  0.11150259     0.78600
O406        O  0.91877630  0.12104526  0.37126569    -0.63000
O407        O  0.85665557  0.06724866  0.42713526    -0.50200
C408        C  0.87142440  0.10902568  0.38515357     0.77000
Zr409      Zr  0.50489202  0.08343093  0.39856163     2.77500
O410        O  0.99921948  0.19353401  0.36024597    -0.93700
O411        O  0.00792365  0.04741228  0.28797818    -0.74500
Zr412      Zr  0.50413743  0.09820415  0.08723926     2.70100
O413        O  0.49818281  0.20630292  0.04713500    -0.75800
O414        O  0.99920925  0.14077823  0.19666598    -0.94900
Zr415      Zr  0.90387263  0.99664848  0.00008772     2.21500
Zr416      Zr  0.60590714  0.49760842  0.50049582     2.11100
O417        O  0.55536064  0.09368762  0.49337058    -2.43600
O418        O  0.95374065  0.09245772  0.49271265    -0.75600
O419        O  0.55583799  0.48972271  0.40411210    -0.67800
O420        O  0.95415387  0.00365427  0.09634650    -2.28700
O421        O  0.95386333  0.98985221  0.40316590    -2.24900
O422        O  0.55595488  0.50482280  0.09731712    -0.69500
H423        H  0.57788352  0.36348591  0.00896663     0.82500
H424        H  0.93228369  0.00533962  0.13390119     0.83500
H425        H  0.57680649  0.13150328  0.49158186     0.85800
H426        H  0.93223302  0.98811809  0.36531773     0.83400
H427        H  0.96532378  0.44321495  0.22440827     0.46400
H428        H  0.53478662  0.14603542  0.21287054     0.45400
H429        H  0.96157155  0.21806116  0.05357745     0.45100
H430        H  0.53431924  0.21161523  0.36349489     0.43000
H431        H  0.54510253  0.04157769  0.27903086     0.46100
H432        H  0.97602044  0.34216482  0.28981425     0.40900
H433        H  0.96354706  0.27630450  0.44884832     0.47000
H434        H  0.53829781  0.28090743  0.12615343     0.43400
H435        H  0.99273292  0.19012200  0.31343720     0.48400
H436        H  0.52832484  0.31052028  0.30820807     0.47100
H437        H  0.00835883  0.30357405  0.18723337     0.47200
H438        H  0.48637456  0.18523371  0.19185297     0.47600
C439        C  0.67779445  0.14769893  0.34770134     0.01500
C440        C  0.67816019  0.34487566  0.35067483     0.01500
C441        C  0.67890796  0.34787216  0.15285823     0.01500
C442        C  0.67758981  0.15069452  0.14979835     0.01500
C443        C  0.83162322  0.14735969  0.34831536     0.01500
C444        C  0.83132556  0.14917870  0.15048407     0.01500
C445        C  0.83276689  0.34607011  0.15251282     0.01500
C446        C  0.83183684  0.34428471  0.35034486     0.01500
C447        C  0.83899209  0.35643249  0.22242363    -0.09300
C448        C  0.83852419  0.35598260  0.28074801    -0.10800
C449        C  0.83819641  0.21866110  0.14034891    -0.09300
C450        C  0.83884969  0.27670754  0.14087107    -0.10800
C451        C  0.83744765  0.13751217  0.22011926    -0.09300
C452        C  0.83756579  0.13706314  0.27841590    -0.10800
C453        C  0.83823566  0.27472509  0.36055659    -0.09300
C454        C  0.83829827  0.21665649  0.36001978    -0.10800
C455        C  0.73119377  0.13455749  0.13358003    -0.09300
C456        C  0.77768834  0.13389825  0.13376911    -0.10800
C457        C  0.67133769  0.22043966  0.13975827    -0.09300
C458        C  0.67168308  0.27858624  0.14069043    -0.10800
C459        C  0.77917030  0.36259094  0.13650881    -0.09300
C460        C  0.73265548  0.36320258  0.13667087    -0.10800
C461        C  0.67282063  0.35771652  0.22280939    -0.09300
C462        C  0.67219256  0.35677806  0.28108718    -0.10800
C463        C  0.73177965  0.36037128  0.36708251    -0.09300
C464        C  0.77824977  0.36020103  0.36661934    -0.10800
C465        C  0.67165906  0.13792539  0.27769147    -0.09300
C466        C  0.67130188  0.13884821  0.21938312    -0.10800
C467        C  0.73143955  0.13171915  0.36399177    -0.09300
C468        C  0.77795456  0.13155570  0.36443704    -0.10900
C469        C  0.67107872  0.21705374  0.35987981    -0.09300
C470        C  0.67141459  0.27519839  0.36070065    -0.10800
O471        O  0.91863286  0.36824423  0.87624883    -0.71300
O472        O  0.85634064  0.42295664  0.93088094    -0.50200
C473        C  0.87128120  0.38129389  0.88880791     0.82400
O474        O  0.59209523  0.37587478  0.63100410    -0.55900
O475        O  0.65409150  0.42783271  0.57345835    -0.48900
C476        C  0.63938442  0.38693827  0.61634140     0.74400
O477        O  0.91996401  0.37097032  0.62831330    -0.70500
O478        O  0.85763751  0.42611832  0.57383696    -0.51000
C479        C  0.87256629  0.38382898  0.61527178     0.80400
O480        O  0.59125057  0.36860422  0.87681528    -0.55600
O481        O  0.65345246  0.42480323  0.93010999    -0.48700
C482        C  0.63859089  0.38238813  0.88872460     0.77000
Zr483      Zr  0.00485781  0.39586912  0.91327695     2.54700
O484        O  0.00063799  0.28704469  0.95162448    -0.76200
O485        O  0.51132373  0.35280918  0.80413893    -0.89600
Zr486      Zr  0.00554815  0.41046072  0.60174439     2.64700
O487        O  0.00521300  0.30008204  0.63992317    -0.94500
O488        O  0.50228874  0.44493273  0.71280190    -0.76600
O489        O  0.95429757  0.40091884  0.50762977    -0.80000
O490        O  0.55611035  0.40105834  0.50714972    -2.14700
O491        O  0.59088831  0.12024315  0.86987677    -0.63300
O492        O  0.65303198  0.06782823  0.92699823    -0.47900
C493        C  0.63820799  0.10892874  0.88430406     0.75400
O494        O  0.91828794  0.12535173  0.62535348    -0.56300
O495        O  0.85642130  0.07000351  0.57045674    -0.48200
C496        C  0.87103134  0.11192703  0.61254457     0.77200
O497        O  0.59056896  0.12715946  0.62311699    -0.67600
O498        O  0.65305768  0.07094048  0.57035700    -0.46300
C499        C  0.63800406  0.11343791  0.61150255     0.78600
O500        O  0.91877645  0.12104524  0.87126551    -0.63000
O501        O  0.85665578  0.06724835  0.92713491    -0.50200
C502        C  0.87142456  0.10902554  0.88515336     0.77000
Zr503      Zr  0.50489192  0.08343106  0.89856170     2.77500
O504        O  0.99921920  0.19353395  0.86024549    -0.93700
O505        O  0.00792399  0.04741241  0.78797805    -0.74500
Zr506      Zr  0.50413738  0.09820416  0.58723919     2.70100
O507        O  0.49818298  0.20630307  0.54713516    -0.75800
O508        O  0.99920881  0.14077853  0.69666564    -0.94900
Zr509      Zr  0.90387250  0.99664852  0.50008781     2.21500
Zr510      Zr  0.60590723  0.49760838  0.00049579     2.11100
O511        O  0.55536083  0.09368786  0.99337055    -2.43600
O512        O  0.95374076  0.09245774  0.99271273    -0.75600
O513        O  0.55583798  0.48972280  0.90411214    -0.67800
O514        O  0.95415386  0.00365442  0.59634661    -2.28700
O515        O  0.95386339  0.98985225  0.90316588    -2.24900
O516        O  0.55595488  0.50482275  0.59731728    -0.69500
H517        H  0.57788366  0.36348531  0.50896676     0.82500
H518        H  0.93228380  0.00533992  0.63390148     0.83500
H519        H  0.57680676  0.13150361  0.99158168     0.85800
H520        H  0.93223297  0.98811804  0.86531787     0.83400
H521        H  0.96532354  0.44321472  0.72440836     0.46400
H522        H  0.53478689  0.14603515  0.71287020     0.45400
H523        H  0.96157128  0.21806123  0.55357776     0.45100
H524        H  0.53431942  0.21161538  0.86349477     0.43000
H525        H  0.54510229  0.04157745  0.77903082     0.46100
H526        H  0.97602079  0.34216488  0.78981420     0.40900
H527        H  0.96354736  0.27630454  0.94884855     0.47000
H528        H  0.53829767  0.28090747  0.62615310     0.43400
H529        H  0.99273299  0.19012187  0.81343662     0.48400
H530        H  0.52832469  0.31052047  0.80820808     0.47100
H531        H  0.00835887  0.30357394  0.68723322     0.47200
H532        H  0.48637466  0.18523334  0.69185300     0.47600
C533        C  0.67779448  0.14769896  0.84770137     0.01500
C534        C  0.67816014  0.34487567  0.85067479     0.01500
C535        C  0.67890796  0.34787224  0.65285817     0.01500
C536        C  0.67758986  0.15069453  0.64979840     0.01500
C537        C  0.83162332  0.14735964  0.84831539     0.01500
C538        C  0.83132555  0.14917876  0.65048410     0.01500
C539        C  0.83276684  0.34607000  0.65251280     0.01500
C540        C  0.83183681  0.34428470  0.85034486     0.01500
C541        C  0.83899201  0.35643225  0.72242362    -0.09300
C542        C  0.83852421  0.35598247  0.78074805    -0.10800
C543        C  0.83819630  0.21866107  0.64034874    -0.09300
C544        C  0.83884961  0.27670751  0.64087087    -0.10800
C545        C  0.83744771  0.13751233  0.72011931    -0.09300
C546        C  0.83756588  0.13706321  0.77841593    -0.10800
C547        C  0.83823559  0.27472507  0.86055674    -0.09300
C548        C  0.83829837  0.21665645  0.86001993    -0.10800
C549        C  0.73119381  0.13455744  0.63358009    -0.09300
C550        C  0.77768835  0.13389821  0.63376912    -0.10800
C551        C  0.67133767  0.22043972  0.63975832    -0.09300
C552        C  0.67168298  0.27858633  0.64069030    -0.10800
C553        C  0.77917031  0.36259080  0.63650873    -0.09300
C554        C  0.73265551  0.36320259  0.63667083    -0.10800
C555        C  0.67282065  0.35771649  0.72280935    -0.09300
C556        C  0.67219244  0.35677790  0.78108711    -0.10800
C557        C  0.73177959  0.36037135  0.86708229    -0.09300
C558        C  0.77824971  0.36020115  0.86661916    -0.10800
C559        C  0.67165921  0.13792522  0.77769154    -0.09300
C560        C  0.67130199  0.13884816  0.71938316    -0.10800
C561        C  0.73143960  0.13171922  0.86399197    -0.09300
C562        C  0.77795464  0.13155570  0.86443716    -0.10900
C563        C  0.67107876  0.21705380  0.85987970    -0.09300
C564        C  0.67141452  0.27519845  0.86070076    -0.10800
O565        O  0.91863286  0.86824399  0.37624922    -0.71300
O566        O  0.85634055  0.92295674  0.43088084    -0.50200
C567        C  0.87128118  0.88129379  0.38880803     0.82400
O568        O  0.59209521  0.87587491  0.13100422    -0.55900
O569        O  0.65409158  0.92783233  0.07345816    -0.48900
C570        C  0.63938442  0.88693813  0.11634140     0.74400
O571        O  0.91996407  0.87097027  0.12831335    -0.70500
O572        O  0.85763767  0.92611831  0.07383688    -0.51000
C573        C  0.87256636  0.88382901  0.11527179     0.80400
O574        O  0.59125048  0.86860431  0.37681519    -0.55600
O575        O  0.65345231  0.92480335  0.43010994    -0.48700
C576        C  0.63859081  0.88238823  0.38872453     0.77000
Zr577      Zr  0.00485786  0.89586909  0.41327710     2.54700
O578        O  0.00063766  0.78704446  0.45162426    -0.76200
O579        O  0.51132396  0.85280952  0.30413900    -0.89600
Zr580      Zr  0.00554819  0.91046071  0.10174431     2.64700
O581        O  0.00521292  0.80008196  0.13992327    -0.94500
O582        O  0.50228860  0.94493290  0.21280170    -0.76600
O583        O  0.95429758  0.90091879  0.00762966    -0.80000
O584        O  0.55611039  0.90105833  0.00714962    -2.14700
O585        O  0.59088835  0.62024317  0.36987695    -0.63300
O586        O  0.65303211  0.56782815  0.42699816    -0.47900
C587        C  0.63820806  0.60892874  0.38430406     0.75400
O588        O  0.91828796  0.62535188  0.12535339    -0.56300
O589        O  0.85642140  0.57000364  0.07045656    -0.48200
C590        C  0.87103140  0.61192716  0.11254444     0.77200
O591        O  0.59056887  0.62715956  0.12311725    -0.67600
O592        O  0.65305751  0.57094071  0.07035695    -0.46300
C593        C  0.63800395  0.61343807  0.11150258     0.78600
O594        O  0.91877630  0.62104506  0.37126569    -0.63000
O595        O  0.85665554  0.56724849  0.42713522    -0.50200
C596        C  0.87142440  0.60902550  0.38515355     0.77000
Zr597      Zr  0.50489192  0.58343090  0.39856162     2.77500
O598        O  0.99921957  0.69353408  0.36024603    -0.93700
O599        O  0.00792381  0.54741249  0.28797809    -0.74500
Zr600      Zr  0.50413742  0.59820407  0.08723928     2.70100
O601        O  0.49818288  0.70630275  0.04713497    -0.75800
O602        O  0.99920919  0.64077860  0.19666591    -0.94900
Zr603      Zr  0.90387258  0.49664850  0.00008773     2.21500
Zr604      Zr  0.60590716  0.99760834  0.50049587     2.11100
O605        O  0.55536060  0.59368776  0.49337053    -2.43600
O606        O  0.95374071  0.59245762  0.49271266    -0.75600
O607        O  0.55583806  0.98972270  0.40411209    -0.67800
O608        O  0.95415381  0.50365424  0.09634651    -2.28700
O609        O  0.95386325  0.48985208  0.40316573    -2.24900
O610        O  0.55595482  0.00482273  0.09731709    -0.69500
H611        H  0.57788371  0.86348533  0.00896660     0.82500
H612        H  0.93228364  0.50533957  0.13390120     0.83500
H613        H  0.57680639  0.63150349  0.49158180     0.85800
H614        H  0.93223287  0.48811788  0.36531746     0.83400
H615        H  0.96532379  0.94321477  0.22440824     0.46400
H616        H  0.53478663  0.64603538  0.21287047     0.45400
H617        H  0.96157164  0.71806105  0.05357756     0.45100
H618        H  0.53431943  0.71161534  0.36349490     0.43000
H619        H  0.54510253  0.54157758  0.27903107     0.46100
H620        H  0.97602038  0.84216495  0.28981427     0.40900
H621        H  0.96354705  0.77630445  0.44884846     0.47000
H622        H  0.53829792  0.78090728  0.12615343     0.43400
H623        H  0.99273290  0.69012214  0.31343730     0.48400
H624        H  0.52832491  0.81052068  0.30820807     0.47100
H625        H  0.00835883  0.80357384  0.18723329     0.47200
H626        H  0.48637441  0.68523346  0.19185299     0.47600
C627        C  0.67779444  0.64769908  0.34770133     0.01500
C628        C  0.67816021  0.84487582  0.35067483     0.01500
C629        C  0.67890797  0.84787219  0.15285824     0.01500
C630        C  0.67758984  0.65069461  0.14979834     0.01500
C631        C  0.83162324  0.64735957  0.34831534     0.01500
C632        C  0.83132556  0.64917883  0.15048407     0.01500
C633        C  0.83276685  0.84607015  0.15251282     0.01500
C634        C  0.83183684  0.84428465  0.35034487     0.01500
C635        C  0.83899193  0.85643248  0.22242365    -0.09300
C636        C  0.83852414  0.85598263  0.28074805    -0.10800
C637        C  0.83819638  0.71866119  0.14034889    -0.09300
C638        C  0.83884970  0.77670763  0.14087105    -0.10800
C639        C  0.83744768  0.63751230  0.22011925    -0.09300
C640        C  0.83756581  0.63706303  0.27841589    -0.10800
C641        C  0.83823564  0.77472498  0.36055655    -0.09300
C642        C  0.83829834  0.71665636  0.36001976    -0.10800
C643        C  0.73119378  0.63455744  0.13358004    -0.09300
C644        C  0.77768836  0.63389819  0.13376913    -0.10800
C645        C  0.67133776  0.72043976  0.13975822    -0.09300
C646        C  0.67168312  0.77858632  0.14069037    -0.10800
C647        C  0.77917028  0.86259092  0.13650875    -0.09300
C648        C  0.73265548  0.86320265  0.13667088    -0.10800
C649        C  0.67282064  0.85771639  0.22280939    -0.09300
C650        C  0.67219257  0.85677800  0.28108717    -0.10800
C651        C  0.73177968  0.86037151  0.36708249    -0.09300
C652        C  0.77824980  0.86020114  0.36661935    -0.10800
C653        C  0.67165908  0.63792542  0.27769146    -0.09300
C654        C  0.67130189  0.63884835  0.21938311    -0.10800
C655        C  0.73143954  0.63171937  0.36399179    -0.09300
C656        C  0.77795456  0.63155579  0.36443706    -0.10900
C657        C  0.67107871  0.71705391  0.35987977    -0.09300
C658        C  0.67141461  0.77519857  0.36070072    -0.10800
O659        O  0.91863288  0.86824409  0.87624891    -0.71300
O660        O  0.85634068  0.92295671  0.93088085    -0.50200
C661        C  0.87128123  0.88129387  0.88880793     0.82400
O662        O  0.59209522  0.87587461  0.63100409    -0.55900
O663        O  0.65409150  0.92783251  0.57345834    -0.48900
C664        C  0.63938441  0.88693808  0.61634139     0.74400
O665        O  0.91996404  0.87097020  0.62831321    -0.70500
O666        O  0.85763757  0.92611840  0.57383705    -0.51000
C667        C  0.87256633  0.88382899  0.61527176     0.80400
O668        O  0.59125060  0.86860407  0.87681537    -0.55600
O669        O  0.65345247  0.92480327  0.93010987    -0.48700
C670        C  0.63859091  0.88238806  0.88872461     0.77000
Zr671      Zr  0.00485782  0.89586909  0.91327695     2.54700
O672        O  0.00063751  0.78704459  0.95162442    -0.76200
O673        O  0.51132374  0.85280901  0.80413896    -0.89600
Zr674      Zr  0.00554816  0.91046083  0.60174444     2.64700
O675        O  0.00521308  0.80008200  0.63992308    -0.94500
O676        O  0.50228876  0.94493295  0.71280189    -0.76600
O677        O  0.95429762  0.90091895  0.50762979    -0.80000
O678        O  0.55611030  0.90105842  0.50714974    -2.14700
O679        O  0.59088829  0.62024323  0.86987681    -0.63300
O680        O  0.65303198  0.56782835  0.92699825    -0.47900
C681        C  0.63820798  0.60892883  0.88430407     0.75400
O682        O  0.91828798  0.62535163  0.62535356    -0.56300
O683        O  0.85642131  0.57000366  0.57045662    -0.48200
C684        C  0.87103137  0.61192705  0.61254455     0.77200
O685        O  0.59056896  0.62715935  0.62311706    -0.67600
O686        O  0.65305771  0.57094063  0.57035687    -0.46300
C687        C  0.63800407  0.61343792  0.61150253     0.78600
O688        O  0.91877648  0.62104516  0.87126545    -0.63000
O689        O  0.85665577  0.56724853  0.92713502    -0.50200
C690        C  0.87142459  0.60902558  0.88515338     0.77000
Zr691      Zr  0.50489192  0.58343097  0.89856169     2.77500
O692        O  0.99921914  0.69353376  0.86024548    -0.93700
O693        O  0.00792401  0.54741260  0.78797798    -0.74500
Zr694      Zr  0.50413740  0.59820401  0.58723923     2.70100
O695        O  0.49818313  0.70630282  0.54713512    -0.75800
O696        O  0.99920885  0.64077873  0.69666559    -0.94900
Zr697      Zr  0.90387249  0.49664848  0.50008781     2.21500
Zr698      Zr  0.60590721  0.99760829  0.00049579     2.11100
O699        O  0.55536066  0.59368758  0.99337056    -2.43600
O700        O  0.95374081  0.59245765  0.99271273    -0.75600
O701        O  0.55583798  0.98972284  0.90411214    -0.67800
O702        O  0.95415387  0.50365427  0.59634661    -2.28700
O703        O  0.95386337  0.48985224  0.90316589    -2.24900
O704        O  0.55595488  0.00482291  0.59731728    -0.69500
H705        H  0.57788362  0.86348541  0.50896675     0.82500
H706        H  0.93228383  0.50533971  0.63390148     0.83500
H707        H  0.57680653  0.63150316  0.99158169     0.85800
H708        H  0.93223295  0.48811814  0.86531788     0.83400
H709        H  0.96532356  0.94321491  0.72440837     0.46400
H710        H  0.53478691  0.64603524  0.71287024     0.45400
H711        H  0.96157129  0.71806102  0.55357775     0.45100
H712        H  0.53431934  0.71161524  0.86349483     0.43000
H713        H  0.54510232  0.54157766  0.77903077     0.46100
H714        H  0.97602081  0.84216471  0.78981421     0.40900
H715        H  0.96354693  0.77630448  0.94884844     0.47000
H716        H  0.53829771  0.78090734  0.62615304     0.43400
H717        H  0.99273303  0.69012167  0.81343655     0.48400
H718        H  0.52832471  0.81052032  0.80820818     0.47100
H719        H  0.00835885  0.80357377  0.68723312     0.47200
H720        H  0.48637483  0.68523357  0.69185286     0.47600
C721        C  0.67779445  0.64769900  0.84770136     0.01500
C722        C  0.67816016  0.84487561  0.85067479     0.01500
C723        C  0.67890798  0.84787212  0.65285817     0.01500
C724        C  0.67758986  0.65069447  0.64979843     0.01500
C725        C  0.83162334  0.64735962  0.84831537     0.01500
C726        C  0.83132558  0.64917873  0.65048412     0.01500
C727        C  0.83276684  0.84607010  0.65251281     0.01500
C728        C  0.83183682  0.84428475  0.85034486     0.01500
C729        C  0.83899204  0.85643247  0.72242363    -0.09300
C730        C  0.83852424  0.85598267  0.78074805    -0.10800
C731        C  0.83819628  0.71866109  0.64034881    -0.09300
C732        C  0.83884957  0.77670754  0.64087092    -0.10800
C733        C  0.83744773  0.63751216  0.72011931    -0.09300
C734        C  0.83756591  0.63706308  0.77841593    -0.10800
C735        C  0.83823556  0.77472508  0.86055669    -0.09300
C736        C  0.83829837  0.71665645  0.86001988    -0.10800
C737        C  0.73119384  0.63455745  0.63358009    -0.09300
C738        C  0.77768838  0.63389814  0.63376912    -0.10800
C739        C  0.67133767  0.72043961  0.63975836    -0.09300
C740        C  0.67168305  0.77858620  0.64069030    -0.10800
C741        C  0.77917032  0.86259101  0.63650873    -0.09300
C742        C  0.73265551  0.86320267  0.63667085    -0.10800
C743        C  0.67282066  0.85771637  0.72280936    -0.09300
C744        C  0.67219246  0.85677793  0.78108713    -0.10800
C745        C  0.73177962  0.86037127  0.86708231    -0.09300
C746        C  0.77824974  0.86020124  0.86661918    -0.10800
C747        C  0.67165906  0.63792529  0.77769153    -0.09300
C748        C  0.67130194  0.63884807  0.71938316    -0.10800
C749        C  0.73143960  0.63171928  0.86399190    -0.09300
C750        C  0.77795465  0.63155567  0.86443715    -0.10900
C751        C  0.67107874  0.71705377  0.85987971    -0.09300
C752        C  0.67141452  0.77519843  0.86070073    -0.10800
loop_ 
_geom_bond_atom_site_label_1 
_geom_bond_atom_site_label_2 
_geom_bond_distance 
_geom_bond_site_symmetry_2 
_ccdc_geom_bond_type 
O1          Zr13   2.436       .  S
O1            C3   1.286       .  A
O2         Zr321   2.437       .  S
O2            C3   1.290       .  A
C3           C70   1.510       .  S
O4         Zr392   2.436       .  S
O4            C6   1.286       .  A
O5         Zr134   2.444       .  S
O5            C6   1.291       .  A
C6           C65   1.513       .  S
O7          Zr16   2.434       .  S
O7            C9   1.288       .  A
O8         Zr227   2.440       .  S
O8            C9   1.291       .  A
C9           C69   1.513       .  S
O10        Zr389   2.434       .  S
O10          C12   1.286       .  A
O11         Zr40   2.440       .  S
O11          C12   1.291       .  A
C12          C64   1.513       .  S
Zr13        O386   2.434       .  S
Zr13         O14   2.407       .  S
Zr13        O391   2.441       .  S
Zr13        O113   2.361       .  S
Zr13        O490   2.361       .  S
Zr13        O419   2.370       .  S
Zr13        O233   2.372       .  S
O14          H57   0.990       .  S
O15        Zr389   2.441       .  S
O15          H60   0.989       .  S
O15         H432   0.989   1_455  S
Zr16        O380   2.436       .  S
Zr16         O17   2.433       .  S
Zr16        O394   2.415       .  S
Zr16         O19   2.371       .  S
Zr16        O396   2.370       .  S
Zr16        O232   2.358       .  S
Zr16        O422   2.365       .  S
O17          H61   0.988       .  S
O17         H434   0.989       .  S
O18        Zr392   2.415       .  S
O18         H427   0.990   1_455  S
O19        Zr107   2.361   1_554  S
O19        Zr227   2.390       .  S
O20        Zr483   2.361   1_554  S
O20        Zr392   2.370       .  S
O20        Zr134   2.396       .  S
O20          H47   0.966       .  S
O21         Zr33   2.436       .  S
O21          C23   1.286       .  A
O22        Zr228   2.445   1_545  S
O22          C23   1.291       .  A
C23          C63   1.513       .  S
O24        Zr412   2.432       .  S
O24          C26   1.286       .  A
O25         Zr39   2.445   1_545  S
O25          C26   1.292       .  A
C26          C68   1.511       .  S
O27         Zr36   2.440       .  S
O27          C29   1.287       .  A
O28        Zr322   2.435   1_545  S
O28          C29   1.290       .  A
C29          C66   1.513       .  S
O30        Zr409   2.435       .  S
O30          C32   1.288       .  A
O31        Zr133   2.441   1_545  S
O31          C32   1.291       .  A
C32          C67   1.513       .  S
Zr33        O406   2.435   1_455  S
Zr33        O410   2.433   1_455  S
Zr33        O411   2.415       .  S
Zr33         O41   2.373       .  S
Zr33        O418   2.371   1_455  S
Zr33        O421   2.360   1_445  S
Zr33        O231   2.360   1_545  S
O34        Zr409   2.433       .  S
O34          H59   0.988       .  S
O34         H430   0.989       .  S
O35        Zr409   2.415       .  S
O35         H431   0.990       .  S
Zr36        O400   2.432   1_455  S
Zr36         O37   2.407   1_455  S
Zr36        O414   2.441   1_455  S
Zr36        O512   2.360   1_454  S
Zr36        O135   2.361   1_554  S
Zr36        O234   2.374       .  S
Zr36        O420   2.368   1_455  S
O37         H429   0.991       .  S
O38        Zr412   2.441       .  S
O38         H428   0.989       .  S
O38         H438   0.989       .  S
Zr39        O284   2.437   1_554  S
Zr39        O196   2.440       .  S
Zr39        O125   2.441   1_564  S
Zr39         O44   2.390   1_565  S
Zr39        O207   2.390       .  S
Zr39        O136   2.385   1_564  S
Zr39        O139   2.399   1_554  S
Zr40         O99   2.444       .  S
Zr40        O210   2.445       .  S
Zr40        O310   2.435       .  S
Zr40         O43   2.391       .  S
Zr40        O114   2.396       .  S
Zr40        O229   2.397       .  S
Zr40        O140   2.397       .  S
O41        Zr130   2.361       .  S
O41        Zr228   2.397   1_545  S
O41          H49   0.966       .  S
O42        Zr409   2.371       .  S
O42        Zr506   2.360       .  S
O42        Zr133   2.385   1_545  S
O43        Zr389   2.370       .  S
O43        Zr221   2.360       .  S
O44        Zr204   2.358   1_545  S
O44        Zr412   2.368       .  S
O44          H48   0.965       .  S
O45        Zr201   2.372       .  S
O45        Zr409   2.360   1_565  S
O45        Zr133   2.399       .  S
O45          H50   0.966       .  S
O46        Zr392   2.365       .  S
O46        Zr224   2.374       .  S
O46        Zr134   2.397       .  S
H51         O394   0.990       .  S
H52         O414   0.989   1_455  S
H53         O413   0.991       .  S
H54         O410   0.989   1_455  S
H55         O411   0.990       .  S
H56         O391   0.989       .  S
H58         O393   0.989       .  S
H62         O414   0.989       .  S
C63          C89   1.476       .  S
C63          C91   1.471       .  S
C63          C93   1.477       .  S
C64          C86   1.474       .  S
C64          C87   1.469       .  S
C64          C94   1.477       .  S
C65          C82   1.477       .  S
C65          C84   1.471       .  S
C65          C85   1.475       .  S
C66          C79   1.471       .  S
C66          C81   1.477       .  S
C66          C90   1.475       .  S
C67          C76   1.474       .  S
C67          C78   1.474       .  S
C67          C92   1.471       .  S
C68          C73   1.474       .  S
C68          C75   1.474       .  S
C68          C80   1.470       .  S
C69          C71   1.475       .  S
C69          C74   1.473       .  S
C69          C83   1.471       .  S
C70          C72   1.476       .  S
C70          C77   1.474       .  S
C70          C88   1.470       .  S
C71          C72   1.211       .  T
C73          C74   1.210       .  T
C75          C76   1.210       .  T
C77          C78   1.210       .  T
C79          C80   1.207       .  T
C81          C82   1.212       .  T
C83          C84   1.208       .  T
C85          C86   1.210       .  T
C87          C88   1.207       .  T
C89          C90   1.210       .  T
C91          C92   1.208       .  T
C93          C94   1.212       .  T
O95        Zr107   2.436       .  S
O95          C97   1.286       .  A
O96        Zr227   2.437   1_556  S
O96          C97   1.290       .  A
C97         C164   1.510       .  S
O98        Zr486   2.436       .  S
O98         C100   1.286       .  A
O99         C100   1.291       .  A
C100        C159   1.513       .  S
O101       Zr110   2.434       .  S
O101        C103   1.288       .  A
O102       Zr321   2.440       .  S
O102        C103   1.291       .  A
C103        C163   1.513       .  S
O104       Zr483   2.434       .  S
O104        C106   1.286       .  A
O105       Zr134   2.440   1_556  S
O105        C106   1.291       .  A
C106        C158   1.513       .  S
Zr107       O480   2.434       .  S
Zr107       O108   2.407       .  S
Zr107       O485   2.441       .  S
Zr107       O396   2.361   1_556  S
Zr107       O513   2.370       .  S
Zr107       O327   2.372       .  S
O108        H151   0.990       .  S
O109       Zr483   2.441       .  S
O109        H526   0.989   1_455  S
O109        H154   0.989       .  S
Zr110       O474   2.436       .  S
Zr110       O111   2.433       .  S
Zr110       O488   2.415       .  S
Zr110       O490   2.370       .  S
Zr110       O113   2.371       .  S
Zr110       O326   2.358       .  S
Zr110       O516   2.365       .  S
O111        H528   0.989       .  S
O111        H155   0.988       .  S
O112       Zr486   2.415       .  S
O112        H521   0.990   1_455  S
O113       Zr321   2.390       .  S
O114       Zr389   2.361       .  S
O114       Zr486   2.370       .  S
O114        H141   0.966       .  S
O115       Zr127   2.436       .  S
O115        C117   1.286       .  A
O116       Zr322   2.445   1_546  S
O116        C117   1.291       .  A
C117        C157   1.513       .  S
O118       Zr506   2.432       .  S
O118        C120   1.286       .  A
O119       Zr133   2.445   1_545  S
O119        C120   1.292       .  A
C120        C162   1.511       .  S
O121       Zr130   2.440       .  S
O121        C123   1.287       .  A
O122       Zr228   2.435   1_545  S
O122        C123   1.290       .  A
C123        C160   1.513       .  S
O124       Zr503   2.435       .  S
O124        C126   1.288       .  A
O125        C126   1.291       .  A
C126        C161   1.513       .  S
Zr127       O500   2.435   1_455  S
Zr127       O504   2.433   1_455  S
Zr127       O505   2.415       .  S
Zr127       O135   2.373       .  S
Zr127       O512   2.371   1_455  S
Zr127       O515   2.360   1_445  S
Zr127       O325   2.360   1_545  S
O128       Zr503   2.433       .  S
O128        H524   0.989       .  S
O128        H153   0.988       .  S
O129       Zr503   2.415       .  S
O129        H525   0.990       .  S
Zr130       O494   2.432   1_455  S
Zr130       O131   2.407   1_455  S
Zr130       O508   2.441   1_455  S
Zr130       O418   2.360   1_455  S
Zr130       O328   2.374       .  S
Zr130       O514   2.368   1_455  S
O131        H523   0.991       .  S
O132       Zr506   2.441       .  S
O132        H522   0.989       .  S
O132        H532   0.989       .  S
Zr133       O190   2.437       .  S
Zr133       O290   2.440       .  S
Zr133       O301   2.390       .  S
Zr133       O138   2.390   1_565  S
Zr134       O304   2.445   1_554  S
Zr134       O216   2.435       .  S
Zr134       O323   2.397   1_554  S
Zr134       O137   2.391   1_554  S
O135       Zr322   2.397   1_546  S
O135        H143   0.966       .  S
O136       Zr503   2.371       .  S
O136       Zr412   2.360   1_556  S
O137       Zr483   2.370       .  S
O137       Zr315   2.360       .  S
O138       Zr298   2.358   1_545  S
O138       Zr506   2.368       .  S
O138        H142   0.965       .  S
O139       Zr295   2.372       .  S
O139       Zr503   2.360   1_565  S
O139        H144   0.966       .  S
O140       Zr486   2.365       .  S
O140       Zr318   2.374       .  S
H145        O488   0.990       .  S
H146        O508   0.989   1_455  S
H147        O507   0.991       .  S
H148        O504   0.989   1_455  S
H149        O505   0.990       .  S
H150        O485   0.989       .  S
H152        O487   0.989       .  S
H156        O508   0.989       .  S
C157        C183   1.476       .  S
C157        C185   1.471       .  S
C157        C187   1.477       .  S
C158        C180   1.474       .  S
C158        C181   1.469       .  S
C158        C188   1.477       .  S
C159        C176   1.477       .  S
C159        C178   1.471       .  S
C159        C179   1.475       .  S
C160        C173   1.471       .  S
C160        C175   1.477       .  S
C160        C184   1.475       .  S
C161        C170   1.474       .  S
C161        C172   1.474       .  S
C161        C186   1.471       .  S
C162        C167   1.474       .  S
C162        C169   1.474       .  S
C162        C174   1.470       .  S
C163        C165   1.475       .  S
C163        C168   1.473       .  S
C163        C177   1.471       .  S
C164        C166   1.476       .  S
C164        C171   1.474       .  S
C164        C182   1.470       .  S
C165        C166   1.211       .  T
C167        C168   1.210       .  T
C169        C170   1.210       .  T
C171        C172   1.210       .  T
C173        C174   1.207       .  T
C175        C176   1.212       .  T
C177        C178   1.208       .  T
C179        C180   1.210       .  T
C181        C182   1.207       .  T
C183        C184   1.210       .  T
C185        C186   1.208       .  T
C187        C188   1.212       .  T
O189       Zr201   2.436       .  S
O189        C191   1.286       .  A
O190        C191   1.290       .  A
C191        C258   1.510       .  S
O192       Zr580   2.436       .  S
O192        C194   1.286       .  A
O193       Zr322   2.444       .  S
O193        C194   1.291       .  A
C194        C253   1.513       .  S
O195       Zr204   2.434       .  S
O195        C197   1.288       .  A
O196        C197   1.291       .  A
C197        C257   1.513       .  S
O198       Zr577   2.434       .  S
O198        C200   1.286       .  A
O199       Zr228   2.440       .  S
O199        C200   1.291       .  A
C200        C252   1.513       .  S
Zr201       O574   2.434       .  S
Zr201       O202   2.407       .  S
Zr201       O579   2.441       .  S
Zr201       O301   2.361       .  S
Zr201       O678   2.361       .  S
Zr201       O607   2.370       .  S
O202        H245   0.990       .  S
O203       Zr577   2.441       .  S
O203        H620   0.989   1_455  S
O203        H248   0.989       .  S
Zr204       O568   2.436       .  S
Zr204       O205   2.433       .  S
Zr204       O582   2.415       .  S
Zr204       O584   2.370       .  S
Zr204       O207   2.371       .  S
Zr204       O610   2.365   1_565  S
O205        H622   0.989       .  S
O205        H249   0.988       .  S
O206       Zr580   2.415       .  S
O206        H615   0.990   1_455  S
O207       Zr295   2.361   1_554  S
O208       Zr671   2.361   1_554  S
O208       Zr580   2.370       .  S
O208       Zr322   2.396       .  S
O208        H235   0.966       .  S
O209       Zr221   2.436       .  S
O209        C211   1.286       .  A
O210        C211   1.291       .  A
C211        C251   1.513       .  S
O212       Zr600   2.432       .  S
O212        C214   1.286       .  A
O213       Zr227   2.445       .  S
O213        C214   1.292       .  A
C214        C256   1.511       .  S
O215       Zr224   2.440       .  S
O215        C217   1.287       .  A
O216        C217   1.290       .  A
C217        C254   1.513       .  S
O218       Zr597   2.435       .  S
O218        C220   1.288       .  A
O219       Zr321   2.441       .  S
O219        C220   1.291       .  A
C220        C255   1.513       .  S
Zr221       O594   2.435   1_455  S
Zr221       O598   2.433   1_455  S
Zr221       O599   2.415       .  S
Zr221       O229   2.373       .  S
Zr221       O606   2.371   1_455  S
Zr221       O609   2.360   1_455  S
O222       Zr597   2.433       .  S
O222        H618   0.989       .  S
O222        H247   0.988       .  S
O223       Zr597   2.415       .  S
O223        H619   0.990       .  S
Zr224       O588   2.432   1_455  S
Zr224       O225   2.407   1_455  S
Zr224       O602   2.441   1_455  S
Zr224       O700   2.360   1_454  S
Zr224       O323   2.361   1_554  S
Zr224       O608   2.368   1_455  S
O225        H617   0.991       .  S
O226       Zr600   2.441       .  S
O226        H616   0.989       .  S
O226        H626   0.989       .  S
Zr227       O313   2.441   1_554  S
Zr227       O324   2.385   1_554  S
Zr227       O232   2.390       .  S
Zr227       O327   2.399   1_554  S
Zr228       O287   2.444       .  S
Zr228       O302   2.396       .  S
Zr228       O231   2.391       .  S
Zr228       O328   2.397   1_565  S
O229       Zr318   2.361       .  S
O229        H237   0.966       .  S
O230       Zr597   2.371       .  S
O230       Zr694   2.360       .  S
O230       Zr321   2.385       .  S
O231       Zr577   2.370       .  S
O232       Zr600   2.368       .  S
O232        H236   0.965       .  S
O233       Zr597   2.360       .  S
O233       Zr321   2.399       .  S
O233        H238   0.966       .  S
O234       Zr580   2.365   1_545  S
O234       Zr322   2.397   1_545  S
H239        O582   0.990       .  S
H240        O602   0.989   1_455  S
H241        O601   0.991       .  S
H242        O598   0.989   1_455  S
H243        O599   0.990       .  S
H244        O579   0.989       .  S
H246        O581   0.989       .  S
H250        O602   0.989       .  S
C251        C277   1.476       .  S
C251        C279   1.471       .  S
C251        C281   1.477       .  S
C252        C274   1.474       .  S
C252        C275   1.469       .  S
C252        C282   1.477       .  S
C253        C270   1.477       .  S
C253        C272   1.471       .  S
C253        C273   1.475       .  S
C254        C267   1.471       .  S
C254        C269   1.477       .  S
C254        C278   1.475       .  S
C255        C264   1.474       .  S
C255        C266   1.474       .  S
C255        C280   1.471       .  S
C256        C261   1.474       .  S
C256        C263   1.474       .  S
C256        C268   1.470       .  S
C257        C259   1.475       .  S
C257        C262   1.473       .  S
C257        C271   1.471       .  S
C258        C260   1.476       .  S
C258        C265   1.474       .  S
C258        C276   1.470       .  S
C259        C260   1.211       .  T
C261        C262   1.210       .  T
C263        C264   1.210       .  T
C265        C266   1.210       .  T
C267        C268   1.207       .  T
C269        C270   1.212       .  T
C271        C272   1.208       .  T
C273        C274   1.210       .  T
C275        C276   1.207       .  T
C277        C278   1.210       .  T
C279        C280   1.208       .  T
C281        C282   1.212       .  T
O283       Zr295   2.436       .  S
O283        C285   1.286       .  A
O284        C285   1.290       .  A
C285        C352   1.510       .  S
O286       Zr674   2.436       .  S
O286        C288   1.286       .  A
O287        C288   1.291       .  A
C288        C347   1.513       .  S
O289       Zr298   2.434       .  S
O289        C291   1.288       .  A
O290        C291   1.291       .  A
C291        C351   1.513       .  S
O292       Zr671   2.434       .  S
O292        C294   1.286       .  A
O293       Zr322   2.440   1_556  S
O293        C294   1.291       .  A
C294        C346   1.513       .  S
Zr295       O668   2.434       .  S
Zr295       O296   2.407       .  S
Zr295       O673   2.441       .  S
Zr295       O584   2.361   1_556  S
Zr295       O701   2.370       .  S
O296        H339   0.990       .  S
O297       Zr671   2.441       .  S
O297        H714   0.989   1_455  S
O297        H342   0.989       .  S
Zr298       O662   2.436       .  S
Zr298       O299   2.433       .  S
Zr298       O676   2.415       .  S
Zr298       O678   2.370       .  S
Zr298       O301   2.371       .  S
Zr298       O704   2.365   1_565  S
O299        H716   0.989       .  S
O299        H343   0.988       .  S
O300       Zr674   2.415       .  S
O300        H709   0.990   1_455  S
O302       Zr577   2.361       .  S
O302       Zr674   2.370       .  S
O302        H329   0.966       .  S
O303       Zr315   2.436       .  S
O303        C305   1.286       .  A
O304        C305   1.291       .  A
C305        C345   1.513       .  S
O306       Zr694   2.432       .  S
O306        C308   1.286       .  A
O307       Zr321   2.445       .  S
O307        C308   1.292       .  A
C308        C350   1.511       .  S
O309       Zr318   2.440       .  S
O309        C311   1.287       .  A
O310        C311   1.290       .  A
C311        C348   1.513       .  S
O312       Zr691   2.435       .  S
O312        C314   1.288       .  A
O313        C314   1.291       .  A
C314        C349   1.513       .  S
Zr315       O688   2.435   1_455  S
Zr315       O692   2.433   1_455  S
Zr315       O693   2.415       .  S
Zr315       O323   2.373       .  S
Zr315       O700   2.371   1_455  S
Zr315       O703   2.360   1_455  S
O316       Zr691   2.433       .  S
O316        H712   0.989       .  S
O316        H341   0.988       .  S
O317       Zr691   2.415       .  S
O317        H713   0.990       .  S
Zr318       O682   2.432   1_455  S
Zr318       O319   2.407   1_455  S
Zr318       O696   2.441   1_455  S
Zr318       O606   2.360   1_455  S
Zr318       O702   2.368   1_455  S
O319        H711   0.991       .  S
O320       Zr694   2.441       .  S
O320        H710   0.989       .  S
O320        H720   0.989       .  S
Zr321       O326   2.390       .  S
Zr322       O325   2.391   1_554  S
O323        H331   0.966       .  S
O324       Zr691   2.371       .  S
O324       Zr600   2.360   1_556  S
O325       Zr671   2.370       .  S
O326       Zr694   2.368       .  S
O326        H330   0.965       .  S
O327       Zr691   2.360       .  S
O327        H332   0.966       .  S
O328       Zr674   2.365   1_545  S
H333        O676   0.990       .  S
H334        O696   0.989   1_455  S
H335        O695   0.991       .  S
H336        O692   0.989   1_455  S
H337        O693   0.990       .  S
H338        O673   0.989       .  S
H340        O675   0.989       .  S
H344        O696   0.989       .  S
C345        C371   1.476       .  S
C345        C373   1.471       .  S
C345        C375   1.477       .  S
C346        C368   1.474       .  S
C346        C369   1.469       .  S
C346        C376   1.477       .  S
C347        C364   1.477       .  S
C347        C366   1.471       .  S
C347        C367   1.475       .  S
C348        C361   1.471       .  S
C348        C363   1.477       .  S
C348        C372   1.475       .  S
C349        C358   1.474       .  S
C349        C360   1.474       .  S
C349        C374   1.471       .  S
C350        C355   1.474       .  S
C350        C357   1.474       .  S
C350        C362   1.470       .  S
C351        C353   1.475       .  S
C351        C356   1.473       .  S
C351        C365   1.471       .  S
C352        C354   1.476       .  S
C352        C359   1.474       .  S
C352        C370   1.470       .  S
C353        C354   1.211       .  T
C355        C356   1.210       .  T
C357        C358   1.210       .  T
C359        C360   1.210       .  T
C361        C362   1.207       .  T
C363        C364   1.212       .  T
C365        C366   1.208       .  T
C367        C368   1.210       .  T
C369        C370   1.207       .  T
C371        C372   1.210       .  T
C373        C374   1.208       .  T
C375        C376   1.212       .  T
O377       Zr389   2.436   1_655  S
O377        C379   1.286       .  A
O378       Zr697   2.437       .  S
O378        C379   1.290       .  A
C379        C446   1.510       .  S
O380        C382   1.286       .  A
O381       Zr510   2.444       .  S
O381        C382   1.291       .  A
C382        C441   1.513       .  S
O383       Zr392   2.434   1_655  S
O383        C385   1.288       .  A
O384       Zr603   2.440       .  S
O384        C385   1.291       .  A
C385        C445   1.513       .  S
O386        C388   1.286       .  A
O387       Zr416   2.440       .  S
O387        C388   1.291       .  A
C388        C440   1.513       .  S
Zr389       O390   2.407       .  S
Zr389       O489   2.361   1_455  S
Zr389       O609   2.372   1_455  S
O390        H433   0.990   1_455  S
O391        H436   0.989       .  S
Zr392       O393   2.433       .  S
Zr392       O395   2.371   1_455  S
Zr392       O608   2.358   1_455  S
O393        H437   0.988       .  S
O395       Zr483   2.361   1_654  S
O395       Zr603   2.390       .  S
O396       Zr510   2.396       .  S
O396        H423   0.966       .  S
O397       Zr409   2.436       .  S
O397        C399   1.286       .  A
O398       Zr604   2.445   1_545  S
O398        C399   1.291       .  A
C399        C439   1.513       .  S
O400        C402   1.286       .  A
O401       Zr415   2.445   1_545  S
O401        C402   1.292       .  A
C402        C444   1.511       .  S
O403       Zr412   2.440       .  S
O403        C405   1.287       .  A
O404       Zr698   2.435   1_545  S
O404        C405   1.290       .  A
C405        C442   1.513       .  S
O406        C408   1.288       .  A
O407       Zr509   2.441   1_545  S
O407        C408   1.291       .  A
C408        C443   1.513       .  S
Zr409       O417   2.373       .  S
Zr409       O607   2.360   1_545  S
O410        H435   0.988       .  S
Zr412       O413   2.407       .  S
Zr412       O511   2.361   1_554  S
Zr412       O610   2.374       .  S
Zr415       O660   2.437   1_554  S
Zr415       O572   2.440       .  S
Zr415       O501   2.441   1_564  S
Zr415       O583   2.390       .  S
Zr415       O512   2.385   1_564  S
Zr415       O420   2.390   1_565  S
Zr415       O515   2.399   1_554  S
Zr416       O475   2.444       .  S
Zr416       O586   2.445       .  S
Zr416       O686   2.435       .  S
Zr416       O490   2.396       .  S
Zr416       O605   2.397       .  S
Zr416       O419   2.391       .  S
Zr416       O516   2.397       .  S
O417       Zr506   2.361       .  S
O417       Zr604   2.397   1_545  S
O417        H425   0.966       .  S
O418       Zr509   2.385   1_545  S
O419       Zr597   2.360       .  S
O420       Zr580   2.358   1_645  S
O420        H424   0.965       .  S
O421       Zr577   2.372   1_655  S
O421       Zr509   2.399       .  S
O421        H426   0.966       .  S
O422       Zr600   2.374       .  S
O422       Zr510   2.397       .  S
C439        C465   1.476       .  S
C439        C467   1.471       .  S
C439        C469   1.477       .  S
C440        C462   1.474       .  S
C440        C463   1.469       .  S
C440        C470   1.477       .  S
C441        C458   1.477       .  S
C441        C460   1.471       .  S
C441        C461   1.475       .  S
C442        C455   1.471       .  S
C442        C457   1.477       .  S
C442        C466   1.475       .  S
C443        C452   1.474       .  S
C443        C454   1.474       .  S
C443        C468   1.471       .  S
C444        C449   1.474       .  S
C444        C451   1.474       .  S
C444        C456   1.470       .  S
C445        C447   1.475       .  S
C445        C450   1.473       .  S
C445        C459   1.471       .  S
C446        C448   1.476       .  S
C446        C453   1.474       .  S
C446        C464   1.470       .  S
C447        C448   1.211       .  T
C449        C450   1.210       .  T
C451        C452   1.210       .  T
C453        C454   1.210       .  T
C455        C456   1.207       .  T
C457        C458   1.212       .  T
C459        C460   1.208       .  T
C461        C462   1.210       .  T
C463        C464   1.207       .  T
C465        C466   1.210       .  T
C467        C468   1.208       .  T
C469        C470   1.212       .  T
O471       Zr483   2.436   1_655  S
O471        C473   1.286       .  A
O472       Zr603   2.437   1_556  S
O472        C473   1.290       .  A
C473        C540   1.510       .  S
O474        C476   1.286       .  A
O475        C476   1.291       .  A
C476        C535   1.513       .  S
O477       Zr486   2.434   1_655  S
O477        C479   1.288       .  A
O478       Zr697   2.440       .  S
O478        C479   1.291       .  A
C479        C539   1.513       .  S
O480        C482   1.286       .  A
O481       Zr510   2.440   1_556  S
O481        C482   1.291       .  A
C482        C534   1.513       .  S
Zr483       O484   2.407       .  S
Zr483       O703   2.372   1_455  S
O484        H527   0.990   1_455  S
O485        H530   0.989       .  S
Zr486       O487   2.433       .  S
Zr486       O489   2.371   1_455  S
Zr486       O702   2.358   1_455  S
O487        H531   0.988       .  S
O489       Zr697   2.390       .  S
O490        H517   0.966       .  S
O491       Zr503   2.436       .  S
O491        C493   1.286       .  A
O492       Zr698   2.445   1_546  S
O492        C493   1.291       .  A
C493        C533   1.513       .  S
O494        C496   1.286       .  A
O495       Zr509   2.445   1_545  S
O495        C496   1.292       .  A
C496        C538   1.511       .  S
O497       Zr506   2.440       .  S
O497        C499   1.287       .  A
O498       Zr604   2.435   1_545  S
O498        C499   1.290       .  A
C499        C536   1.513       .  S
O500        C502   1.288       .  A
O501        C502   1.291       .  A
C502        C537   1.513       .  S
Zr503       O511   2.373       .  S
Zr503       O701   2.360   1_545  S
O504        H529   0.988       .  S
Zr506       O507   2.407       .  S
Zr506       O704   2.374       .  S
Zr509       O566   2.437       .  S
Zr509       O666   2.440       .  S
Zr509       O677   2.390       .  S
Zr509       O514   2.390   1_565  S
Zr510       O680   2.445   1_554  S
Zr510       O592   2.435       .  S
Zr510       O699   2.397   1_554  S
Zr510       O513   2.391   1_554  S
O511       Zr698   2.397   1_546  S
O511        H519   0.966       .  S
O513       Zr691   2.360       .  S
O514       Zr674   2.358   1_645  S
O514        H518   0.965       .  S
O515       Zr671   2.372   1_655  S
O515        H520   0.966       .  S
O516       Zr694   2.374       .  S
C533        C559   1.476       .  S
C533        C561   1.471       .  S
C533        C563   1.477       .  S
C534        C556   1.474       .  S
C534        C557   1.469       .  S
C534        C564   1.477       .  S
C535        C552   1.477       .  S
C535        C554   1.471       .  S
C535        C555   1.475       .  S
C536        C549   1.471       .  S
C536        C551   1.477       .  S
C536        C560   1.475       .  S
C537        C546   1.474       .  S
C537        C548   1.474       .  S
C537        C562   1.471       .  S
C538        C543   1.474       .  S
C538        C545   1.474       .  S
C538        C550   1.470       .  S
C539        C541   1.475       .  S
C539        C544   1.473       .  S
C539        C553   1.471       .  S
C540        C542   1.476       .  S
C540        C547   1.474       .  S
C540        C558   1.470       .  S
C541        C542   1.211       .  T
C543        C544   1.210       .  T
C545        C546   1.210       .  T
C547        C548   1.210       .  T
C549        C550   1.207       .  T
C551        C552   1.212       .  T
C553        C554   1.208       .  T
C555        C556   1.210       .  T
C557        C558   1.207       .  T
C559        C560   1.210       .  T
C561        C562   1.208       .  T
C563        C564   1.212       .  T
O565       Zr577   2.436   1_655  S
O565        C567   1.286       .  A
O566        C567   1.290       .  A
C567        C634   1.510       .  S
O568        C570   1.286       .  A
O569       Zr698   2.444       .  S
O569        C570   1.291       .  A
C570        C629   1.513       .  S
O571       Zr580   2.434   1_655  S
O571        C573   1.288       .  A
O572        C573   1.291       .  A
C573        C633   1.513       .  S
O574        C576   1.286       .  A
O575       Zr604   2.440       .  S
O575        C576   1.291       .  A
C576        C628   1.513       .  S
Zr577       O578   2.407       .  S
Zr577       O677   2.361   1_455  S
O578        H621   0.990   1_455  S
O579        H624   0.989       .  S
Zr580       O581   2.433       .  S
Zr580       O583   2.371   1_455  S
O581        H625   0.988       .  S
O583       Zr671   2.361   1_654  S
O584       Zr698   2.396       .  S
O584        H611   0.966       .  S
O585       Zr597   2.436       .  S
O585        C587   1.286       .  A
O586        C587   1.291       .  A
C587        C627   1.513       .  S
O588        C590   1.286       .  A
O589       Zr603   2.445       .  S
O589        C590   1.292       .  A
C590        C632   1.511       .  S
O591       Zr600   2.440       .  S
O591        C593   1.287       .  A
O592        C593   1.290       .  A
C593        C630   1.513       .  S
O594        C596   1.288       .  A
O595       Zr697   2.441       .  S
O595        C596   1.291       .  A
C596        C631   1.513       .  S
Zr597       O605   2.373       .  S
O598        H623   0.988       .  S
Zr600       O601   2.407       .  S
Zr600       O699   2.361   1_554  S
Zr603       O689   2.441   1_554  S
Zr603       O700   2.385   1_554  S
Zr603       O608   2.390       .  S
Zr603       O703   2.399   1_554  S
Zr604       O663   2.444       .  S
Zr604       O678   2.396       .  S
Zr604       O607   2.391       .  S
Zr604       O704   2.397   1_565  S
O605       Zr694   2.361       .  S
O605        H613   0.966       .  S
O606       Zr697   2.385       .  S
O608        H612   0.965       .  S
O609       Zr697   2.399       .  S
O609        H614   0.966       .  S
O610       Zr698   2.397   1_545  S
C627        C653   1.476       .  S
C627        C655   1.471       .  S
C627        C657   1.477       .  S
C628        C650   1.474       .  S
C628        C651   1.469       .  S
C628        C658   1.477       .  S
C629        C646   1.477       .  S
C629        C648   1.471       .  S
C629        C649   1.475       .  S
C630        C643   1.471       .  S
C630        C645   1.477       .  S
C630        C654   1.475       .  S
C631        C640   1.474       .  S
C631        C642   1.474       .  S
C631        C656   1.471       .  S
C632        C637   1.474       .  S
C632        C639   1.474       .  S
C632        C644   1.470       .  S
C633        C635   1.475       .  S
C633        C638   1.473       .  S
C633        C647   1.471       .  S
C634        C636   1.476       .  S
C634        C641   1.474       .  S
C634        C652   1.470       .  S
C635        C636   1.211       .  T
C637        C638   1.210       .  T
C639        C640   1.210       .  T
C641        C642   1.210       .  T
C643        C644   1.207       .  T
C645        C646   1.212       .  T
C647        C648   1.208       .  T
C649        C650   1.210       .  T
C651        C652   1.207       .  T
C653        C654   1.210       .  T
C655        C656   1.208       .  T
C657        C658   1.212       .  T
O659       Zr671   2.436   1_655  S
O659        C661   1.286       .  A
O660        C661   1.290       .  A
C661        C728   1.510       .  S
O662        C664   1.286       .  A
O663        C664   1.291       .  A
C664        C723   1.513       .  S
O665       Zr674   2.434   1_655  S
O665        C667   1.288       .  A
O666        C667   1.291       .  A
C667        C727   1.513       .  S
O668        C670   1.286       .  A
O669       Zr698   2.440   1_556  S
O669        C670   1.291       .  A
C670        C722   1.513       .  S
Zr671       O672   2.407       .  S
O672        H715   0.990   1_455  S
O673        H718   0.989       .  S
Zr674       O675   2.433       .  S
Zr674       O677   2.371   1_455  S
O675        H719   0.988       .  S
O678        H705   0.966       .  S
O679       Zr691   2.436       .  S
O679        C681   1.286       .  A
O680        C681   1.291       .  A
C681        C721   1.513       .  S
O682        C684   1.286       .  A
O683       Zr697   2.445       .  S
O683        C684   1.292       .  A
C684        C726   1.511       .  S
O685       Zr694   2.440       .  S
O685        C687   1.287       .  A
O686        C687   1.290       .  A
C687        C724   1.513       .  S
O688        C690   1.288       .  A
O689        C690   1.291       .  A
C690        C725   1.513       .  S
Zr691       O699   2.373       .  S
O692        H717   0.988       .  S
Zr694       O695   2.407       .  S
Zr697       O702   2.390       .  S
Zr698       O701   2.391   1_554  S
O699        H707   0.966       .  S
O702        H706   0.965       .  S
O703        H708   0.966       .  S
C721        C747   1.476       .  S
C721        C749   1.471       .  S
C721        C751   1.477       .  S
C722        C744   1.474       .  S
C722        C745   1.469       .  S
C722        C752   1.477       .  S
C723        C740   1.477       .  S
C723        C742   1.471       .  S
C723        C743   1.475       .  S
C724        C737   1.471       .  S
C724        C739   1.477       .  S
C724        C748   1.475       .  S
C725        C734   1.474       .  S
C725        C736   1.474       .  S
C725        C750   1.471       .  S
C726        C731   1.474       .  S
C726        C733   1.474       .  S
C726        C738   1.470       .  S
C727        C729   1.475       .  S
C727        C732   1.473       .  S
C727        C741   1.471       .  S
C728        C730   1.476       .  S
C728        C735   1.474       .  S
C728        C746   1.470       .  S
C729        C730   1.211       .  T
C731        C732   1.210       .  T
C733        C734   1.210       .  T
C735        C736   1.210       .  T
C737        C738   1.207       .  T
C739        C740   1.212       .  T
C741        C742   1.208       .  T
C743        C744   1.210       .  T
C745        C746   1.207       .  T
C747        C748   1.210       .  T
C749        C750   1.208       .  T
C751        C752   1.212       .  T
