geometry optimzed in LAMMPS
_audit_creation_date              2020-11-30 
_audit_creation_method            'lammps2cif' 
_symmetry_space_group_name_H-M    'P1' 
_symmetry_Int_Tables_number       1 
_symmetry_cell_setting            triclinic 
loop_ 
_symmetry_equiv_pos_as_xyz 
  x,y,z 
_cell_length_a                    37.049773641424615 
_cell_length_b                    36.79143876849078 
_cell_length_c                    19.19628252252722 
_cell_angle_alpha                 89.92243239105039 
_cell_angle_beta                  89.99278692507119 
_cell_angle_gamma                 90.0123118730455 
loop_ 
_atom_site_label 
_atom_site_type_symbol 
_atom_site_fract_x 
_atom_site_fract_y 
_atom_site_fract_z 
_atom_site_charge 
N1          N  0.20630184  0.31811372  0.42246334    -0.03650
N2          N  0.19864053  0.34348717  0.37617059    -0.55770
N3          N  0.18146538  0.29312493  0.58225129    -0.03330
N4          N  0.15673898  0.30036003  0.62979973    -0.57900
N5          N  0.20629131  0.31871758  0.58133197    -0.02930
N6          N  0.19876659  0.34402268  0.62783859    -0.55750
N7          N  0.18134117  0.29268184  0.42239672    -0.02610
N8          N  0.15629898  0.30012974  0.37554987    -0.58250
C9          C  0.16757103  0.33179298  0.34687853     0.98520
C10         C  0.16795614  0.33208032  0.65809203     0.98300
N11         N  0.20637852  0.18168783  0.58311561    -0.03840
N12         N  0.19878107  0.15629441  0.62941341    -0.56350
N13         N  0.18164296  0.20671911  0.42340418    -0.01960
N14         N  0.15697378  0.19946036  0.37577031    -0.57600
N15         N  0.20653229  0.18120037  0.42428469    -0.03870
N16         N  0.19909100  0.15590145  0.37771284    -0.56620
N17         N  0.18141279  0.20710488  0.58331589    -0.01600
N18         N  0.15643402  0.19963448  0.63029529    -0.57690
Mn19       Mn  0.18055250  0.24990272  0.50286055     1.18440
C20         C  0.16775388  0.16797053  0.65887027     1.00610
C21         C  0.16828225  0.16779306  0.34742258     1.01270
N22         N  0.29185829  0.31900446  0.58081285    -0.03890
N23         N  0.29930555  0.34450169  0.62695126    -0.60200
N24         N  0.31681554  0.29253155  0.42219713    -0.02690
N25         N  0.34163190  0.29951735  0.37463450    -0.60870
N26         N  0.29158725  0.31771276  0.42125065    -0.03390
N27         N  0.29870266  0.34226290  0.37290085    -0.60460
N28         N  0.31671444  0.29348341  0.58205376    -0.02290
N29         N  0.34141470  0.30094089  0.62948695    -0.61150
Mn30       Mn  0.24904291  0.31927626  0.50145700     1.10660
C31         C  0.33011765  0.33273622  0.65730961     1.01830
C32         C  0.32958196  0.33016519  0.34344587     1.01900
N33         N  0.29213017  0.18115961  0.42524667    -0.03400
N34         N  0.29968598  0.15573969  0.37903613    -0.58780
N35         N  0.31664530  0.20758903  0.58443484    -0.02720
N36         N  0.34128455  0.20064121  0.63236334    -0.55510
N37         N  0.29159296  0.18221760  0.58466999    -0.04030
N38         N  0.29871345  0.15751050  0.63268793    -0.58340
N39         N  0.31701507  0.20666784  0.42444792    -0.03020
N40         N  0.34185050  0.19927225  0.37722285    -0.55530
Mn41       Mn  0.24919042  0.18068516  0.50427907     1.20190
Mn42       Mn  0.31774237  0.25006923  0.50331847     1.10090
Cl43       Cl  0.24912309  0.24998587  0.50297541    -0.83500
C44         C  0.33060209  0.16752641  0.34908416     0.98830
C45         C  0.32934053  0.16975305  0.66286976     0.98630
C46         C  0.41790906  0.41865446  0.84774622    -0.00020
C47         C  0.41821066  0.08033433  0.84520675    -0.00020
C48         C  0.07960318  0.41804745  0.84788922    -0.00020
C49         C  0.07943093  0.08018024  0.84537917    -0.00020
C50         C  0.48132178  0.99875174  0.77207333     0.03030
C51         C  0.01785454  0.99868659  0.77030963     0.03030
C52         C  0.41814043  0.41981000  0.16081722    -0.00020
C53         C  0.07925413  0.41967102  0.16051093    -0.00020
C54         C  0.47973027  0.38046668  0.00493776     0.03030
C55         C  0.01625298  0.38118160  0.00490095     0.03030
C56         C  0.07982350  0.08182780  0.15788922    -0.00020
C57         C  0.48143447  0.00126299  0.23386799     0.03030
C58         C  0.01796425  0.00132031  0.23570023     0.03030
C59         C  0.11835406  0.48142567  0.00320329     0.03030
C60         C  0.11840293  0.01833579  0.00255725     0.03030
C61         C  0.01653442  0.11881647  0.00099762     0.03030
C62         C  0.48001637  0.11957761  0.00087437     0.03030
C63         C  0.41821309  0.08157705  0.15837611    -0.00020
C64         C  0.37919799  0.48172712  0.00356748     0.03030
C65         C  0.37919156  0.01865398  0.00273432     0.03030
C66         C  0.39621894  0.05849969  0.11210281    -0.10810
C67         C  0.38473932  0.03946130  0.06587802    -0.12370
C68         C  0.45990049  0.11411470  0.06442442    -0.10810
C69         C  0.44166327  0.10265290  0.11155126    -0.12370
C70         C  0.44158514  0.05756579  0.19953174    -0.10810
C71         C  0.46095183  0.03409439  0.22238826    -0.12370
C72         C  0.03680371  0.11343305  0.06465477    -0.10810
C73         C  0.05566573  0.10251358  0.11148751    -0.12370
C74         C  0.11289035  0.03921053  0.06561372    -0.10810
C75         C  0.10151607  0.05855674  0.11145659    -0.12370
C76         C  0.05709062  0.05785159  0.20035604    -0.10810
C77         C  0.03828294  0.03420789  0.22419451    -0.12370
C78         C  0.03626465  0.38750560  0.06826870    -0.10810
C79         C  0.05486463  0.39912680  0.11467389    -0.12370
C80         C  0.10131516  0.44229309  0.11350983    -0.10810
C81         C  0.11284941  0.46114642  0.06700730    -0.12370
C82         C  0.05695778  0.44428183  0.20239617    -0.10810
C83         C  0.03837576  0.46836286  0.22518303    -0.12370
C84         C  0.45927881  0.38572398  0.06838791    -0.10810
C85         C  0.44072795  0.39727535  0.11506730    -0.12370
C86         C  0.39582673  0.44272448  0.11465058    -0.10810
C87         C  0.38451120  0.46147659  0.06767948    -0.12370
C88         C  0.44248423  0.44462716  0.19802354    -0.10810
C89         C  0.46143928  0.46838141  0.22079566    -0.12370
C90         C  0.05696281  0.05567198  0.80357013    -0.10810
C91         C  0.03829240  0.03163603  0.78083938    -0.12370
C92         C  0.11297438  0.03861194  0.93872052    -0.10810
C93         C  0.10148696  0.05746752  0.89218675    -0.12370
C94         C  0.03657368  0.11243793  0.93770452    -0.10810
C95         C  0.05515094  0.10075613  0.89133916    -0.12370
C96         C  0.03656758  0.38651679  0.94124928    -0.10810
C97         C  0.05543128  0.39737748  0.89433971    -0.12370
C98         C  0.05691753  0.44210369  0.80552621    -0.10630
C99         C  0.03813846  0.46578436  0.78176928    -0.12370
C100        C  0.10136283  0.44124682  0.89433680    -0.10810
C101        C  0.11279893  0.46056674  0.94015581    -0.12370
C102        C  0.39585481  0.05769207  0.89174399    -0.10810
C103        C  0.38450235  0.03893581  0.93867589    -0.12370
C104        C  0.46132844  0.03162029  0.78517758    -0.10810
C105        C  0.44238573  0.05536991  0.80797594    -0.12370
C106        C  0.45962609  0.11433358  0.93732989    -0.10810
C107        C  0.44108801  0.10282287  0.89058294    -0.12370
C108        C  0.39604774  0.44183881  0.89407841    -0.10810
C109        C  0.38468351  0.46090678  0.94038547    -0.12370
C110        C  0.44137326  0.39754531  0.89443937    -0.10810
C111        C  0.45965452  0.38600513  0.94140193    -0.12370
C112        C  0.44134328  0.44254043  0.80642103    -0.10810
C113        C  0.46079256  0.46593562  0.78350663    -0.12370
C114        C  0.34600220  0.39163950  0.71417059    -0.10880
C115        C  0.35116590  0.35400102  0.70816315     0.11270
C116        C  0.37780789  0.33710564  0.74863741    -0.10880
C117        C  0.39892151  0.35741915  0.79460433    -0.10880
C118        C  0.39430210  0.39540644  0.80034491     0.11270
C119        C  0.36761747  0.41215527  0.75899791    -0.10880
H120        H  0.32586852  0.40539091  0.68286824     0.15250
H121        H  0.38238333  0.30810797  0.74465526     0.15250
H122        H  0.41928322  0.34319831  0.82440977     0.15250
H123        H  0.36357405  0.44128225  0.76144386     0.15250
C124        C  0.37499061  0.12181209  0.68064573    -0.10880
C125        C  0.35156749  0.14747675  0.70945833     0.11270
C126        C  0.34960080  0.15133820  0.78188568    -0.10880
C127        C  0.37101836  0.12953989  0.82522974    -0.10880
C128        C  0.39495424  0.10364257  0.79685877     0.11270
C129        C  0.39648597  0.10017428  0.72355619    -0.10880
H130        H  0.37667094  0.11855386  0.62463268     0.15250
H131        H  0.33148911  0.17109515  0.80478484     0.15250
H132        H  0.36903821  0.13290535  0.88114900     0.15250
H133        H  0.41415494  0.08076156  0.69861637     0.15250
C134        C  0.15247542  0.39069504  0.71646089    -0.10880
C135        C  0.14677546  0.35320437  0.70913733     0.11270
C136        C  0.11948103  0.33644720  0.74834881    -0.10880
C137        C  0.09826080  0.35677267  0.79427244    -0.10880
C138        C  0.10342898  0.39461865  0.80115424     0.11270
C139        C  0.13077350  0.41120758  0.76111260    -0.10880
H140        H  0.17309421  0.40438357  0.68623009     0.15250
H141        H  0.11444705  0.30757059  0.74333969     0.15250
H142        H  0.07734776  0.34275310  0.82302181     0.15250
H143        H  0.13524197  0.44025232  0.76435165     0.15250
C144        C  0.37793831  0.37534281  0.32539265    -0.10880
C145        C  0.35183940  0.35237467  0.29675391     0.11270
C146        C  0.34722794  0.35116218  0.22442521    -0.10880
C147        C  0.36877750  0.37279852  0.18099757    -0.10880
C148        C  0.39501786  0.39638124  0.20922007     0.11270
C149        C  0.39921636  0.39718397  0.28242342    -0.10880
H150        H  0.38174380  0.37647909  0.38132750     0.15250
H151        H  0.32709531  0.33344520  0.20165923     0.15250
H152        H  0.36490335  0.37131362  0.12514504     0.15250
H153        H  0.41902032  0.41444983  0.30721066     0.15250
C154        C  0.11970296  0.16285494  0.74944905    -0.10880
C155        C  0.14640491  0.14633720  0.70867927     0.11270
C156        C  0.15146826  0.10862520  0.71332180    -0.10880
C157        C  0.12972815  0.08765576  0.75714637    -0.10880
C158        C  0.10294139  0.10397461  0.79874105     0.11270
C159        C  0.09840931  0.14204686  0.79442064    -0.10880
H160        H  0.11526286  0.19191351  0.74651353     0.15250
H161        H  0.17165984  0.09517237  0.68174045     0.15250
H162        H  0.13376312  0.05850547  0.75865131     0.15250
H163        H  0.07806155  0.15597567  0.82469565     0.15250
C164        C  0.15200742  0.39094806  0.29085051    -0.10880
C165        C  0.14614571  0.35341345  0.29714598     0.11270
C166        C  0.11858426  0.33712258  0.25817225    -0.10880
C167        C  0.09729761  0.35795655  0.21324593    -0.10880
C168        C  0.10271268  0.39584372  0.20715604     0.11270
C169        C  0.13026032  0.41196787  0.24715814    -0.10880
H170        H  0.17285541  0.40425760  0.32103837     0.15250
H171        H  0.11345413  0.30822401  0.26248242     0.15250
H172        H  0.07624007  0.34423096  0.18446183     0.15250
H173        H  0.13493419  0.44099906  0.24443082     0.15250
C174        C  0.34605743  0.10877733  0.29128957    -0.10880
C175        C  0.35174148  0.14629382  0.29830996     0.11270
C176        C  0.37891264  0.16304000  0.25888740    -0.10880
C177        C  0.39997366  0.14270827  0.21284457    -0.10880
C178        C  0.39475352  0.10485143  0.20598056     0.11270
C179        C  0.36762554  0.08823207  0.24645750    -0.10880
H180        H  0.32551949  0.09512189  0.32177941     0.15250
H181        H  0.38392901  0.19192912  0.26371815     0.15250
H182        H  0.42076326  0.15678340  0.18386837     0.15250
H183        H  0.36315084  0.05918843  0.24324752     0.15250
C184        C  0.13072207  0.08856181  0.24523787    -0.10880
C185        C  0.10372929  0.10524527  0.20449067     0.11270
C186        C  0.09901542  0.14319388  0.21046671    -0.10880
C187        C  0.12026964  0.16351779  0.25632432    -0.10880
C188        C  0.14715510  0.14664978  0.29635582     0.11270
C189        C  0.15245377  0.10906124  0.28986380    -0.10880
H190        H  0.13486030  0.05945147  0.24261879     0.15250
H191        H  0.07843439  0.15731634  0.18104592     0.15250
H192        H  0.11558035  0.19248209  0.26065352     0.15250
H193        H  0.17275763  0.09530370  0.32074395     0.15250
N194        N  0.20630167  0.81811394  0.42246402    -0.03650
N195        N  0.19863971  0.84348777  0.37617244    -0.55770
N196        N  0.18146601  0.79312506  0.58225214    -0.03330
N197        N  0.15674058  0.80035982  0.62980273    -0.57900
N198        N  0.20629227  0.81871741  0.58133263    -0.02930
N199        N  0.19876881  0.84402188  0.62784121    -0.55750
N200        N  0.18134106  0.79268201  0.42239761    -0.02610
N201        N  0.15629831  0.80013020  0.37555217    -0.58250
C202        C  0.16756990  0.83179369  0.34688142     0.98520
C203        C  0.16795874  0.83207955  0.65809604     0.98300
N204        N  0.20637702  0.68168761  0.58311513    -0.03840
N205        N  0.19877828  0.65629354  0.62941091    -0.56350
N206        N  0.18164262  0.70671923  0.42340341    -0.01960
N207        N  0.15697398  0.69946073  0.37576824    -0.57600
N208        N  0.20653199  0.68120052  0.42428418    -0.03870
N209        N  0.19909132  0.65590195  0.37771129    -0.56620
N210        N  0.18141165  0.70710498  0.58331515    -0.01600
N211        N  0.15643187  0.69963423  0.63029229    -0.57690
Mn212      Mn  0.18055226  0.74990291  0.50286060     1.18440
C213        C  0.16775069  0.66796971  0.65886625     1.00610
C214        C  0.16828285  0.66779363  0.34742002     1.01270
N215        N  0.29185930  0.81900502  0.58081151    -0.03890
N216        N  0.29930791  0.84450300  0.62694769    -0.60200
N217        N  0.31681537  0.79253106  0.42219585    -0.02690
N218        N  0.34163130  0.79951640  0.37463203    -0.60870
N219        N  0.29158712  0.81771231  0.42124928    -0.03390
N220        N  0.29870209  0.84226197  0.37289834    -0.60460
N221        N  0.31671506  0.79348362  0.58205249    -0.02290
N222        N  0.34141632  0.80094149  0.62948341    -0.61150
Mn223      Mn  0.24904328  0.81927631  0.50145665     1.10660
C224        C  0.33012039  0.83273750  0.65730473     1.01830
C225        C  0.32958109  0.83016398  0.34344260     1.01900
N226        N  0.29212992  0.68115911  0.42524836    -0.03400
N227        N  0.29968646  0.65573869  0.37903921    -0.58780
N228        N  0.31664407  0.70758937  0.58443651    -0.02720
N229        N  0.34128241  0.70064210  0.63236708    -0.55510
N230        N  0.29159149  0.68221814  0.58467165    -0.04030
N231        N  0.29871093  0.65751178  0.63269150    -0.58340
N232        N  0.31701473  0.70666742  0.42444959    -0.03020
N233        N  0.34185074  0.69927147  0.37722603    -0.55530
Mn234      Mn  0.24918959  0.68068514  0.50427966     1.20190
Mn235      Mn  0.31774205  0.75006908  0.50331867     1.10090
Cl236      Cl  0.24912282  0.74998589  0.50297551    -0.83500
C237        C  0.33060287  0.66752531  0.34908819     0.98830
C238        C  0.32933756  0.66975455  0.66287467     0.98630
C239        C  0.41791456  0.91865495  0.84773828    -0.00020
C240        C  0.41820519  0.58033472  0.84521436    -0.00020
C241        C  0.07960852  0.91804719  0.84789687    -0.00020
C242        C  0.07942521  0.58017982  0.84537169    -0.00020
C243        C  0.48131433  0.49875142  0.77207601     0.03030
C244        C  0.01784701  0.49868634  0.77030757     0.03030
C245        C  0.41813763  0.91980949  0.16081050    -0.00020
C246        C  0.07925109  0.91967168  0.16051795    -0.00020
C247        C  0.47973121  0.88046665  0.00493558     0.03030
C248        C  0.01625392  0.88118178  0.00490290     0.03030
C249        C  0.07982622  0.58182819  0.15788239    -0.00020
C250        C  0.48143909  0.50126265  0.23387063     0.03030
C251        C  0.01796894  0.50132000  0.23569796     0.03030
C252        C  0.11835573  0.98142567  0.00321306     0.03030
C253        C  0.11840121  0.51833581  0.00254751     0.03030
C254        C  0.01653308  0.61881644  0.00099594     0.03030
C255        C  0.48001502  0.61957755  0.00087678     0.03030
C256        C  0.41821588  0.58157637  0.15838354    -0.00020
C257        C  0.37919956  0.98172678  0.00355792     0.03030
C258        C  0.37918970  0.51865430  0.00274396     0.03030
C259        C  0.39622108  0.55849914  0.11211127    -0.10810
C260        C  0.38473989  0.53946135  0.06588713    -0.12370
C261        C  0.45990108  0.61411452  0.06442903    -0.10810
C262        C  0.44166513  0.60265251  0.11155749    -0.12370
C263        C  0.44158873  0.55756522  0.19953772    -0.10810
C264        C  0.46095605  0.53409398  0.22239282    -0.12370
C265        C  0.03680430  0.61343306  0.06465090    -0.10810
C266        C  0.05566751  0.60251377  0.11148207    -0.12370
C267        C  0.11289105  0.53921073  0.06560462    -0.10810
C268        C  0.10151828  0.55855729  0.11144843    -0.12370
C269        C  0.05709420  0.55785159  0.20035017    -0.10810
C270        C  0.03828723  0.53420765  0.22418994    -0.12370
C271        C  0.03626364  0.88750591  0.06827285    -0.10810
C272        C  0.05486245  0.89912729  0.11467957    -0.12370
C273        C  0.10131276  0.94229375  0.11351809    -0.10810
C274        C  0.11284859  0.96114665  0.06701647    -0.12370
C275        C  0.05695399  0.94428228  0.20240205    -0.10810
C276        C  0.03837138  0.96836320  0.22518752    -0.12370
C277        C  0.45927781  0.88572378  0.06838357    -0.10810
C278        C  0.44072588  0.89727492  0.11506165    -0.12370
C279        C  0.39582413  0.94272357  0.11464262    -0.10810
C280        C  0.38451014  0.96147603  0.06767057    -0.12370
C281        C  0.44248079  0.94462727  0.19801689    -0.10810
C282        C  0.46143512  0.96838176  0.22079034    -0.12370
C283        C  0.05695614  0.55567173  0.80356420    -0.10810
C284        C  0.03828515  0.53163580  0.78083513    -0.12370
C285        C  0.11297047  0.53861181  0.93871126    -0.10810
C286        C  0.10148182  0.55746703  0.89217810    -0.12370
C287        C  0.03657039  0.61243795  0.93770052    -0.10810
C288        C  0.05514629  0.60075604  0.89133321    -0.12370
C289        C  0.03657047  0.88651705  0.94125356    -0.10810
C290        C  0.05543550  0.89737763  0.89434588    -0.12370
C291        C  0.05692391  0.94210376  0.80553245    -0.10630
C292        C  0.03814558  0.96578457  0.78177385    -0.12370
C293        C  0.10136775  0.94124636  0.89434553    -0.10810
C294        C  0.11280273  0.96056658  0.94016512    -0.12370
C295        C  0.39584941  0.55769299  0.89175266    -0.10810
C296        C  0.38449811  0.53893639  0.93868512    -0.12370
C297        C  0.46132143  0.53161989  0.78518324    -0.10810
C298        C  0.44237947  0.55536966  0.80798328    -0.12370
C299        C  0.45962281  0.61433359  0.93733454    -0.10810
C300        C  0.44108347  0.60282304  0.89058926    -0.12370
C301        C  0.39605267  0.94183920  0.89406962    -0.10810
C302        C  0.38468722  0.96090662  0.94037637    -0.12370
C303        C  0.44137764  0.89754533  0.89443278    -0.10810
C304        C  0.45965743  0.88600504  0.94139738    -0.12370
C305        C  0.44134975  0.94254086  0.80641491    -0.10810
C306        C  0.46079963  0.96593598  0.78350213    -0.12370
C307        C  0.34600783  0.89164126  0.71416124    -0.10880
C308        C  0.35117006  0.85400250  0.70815576     0.11270
C309        C  0.37781188  0.83710675  0.74862992    -0.10880
C310        C  0.39892631  0.85742003  0.79459576    -0.10880
C311        C  0.39430790  0.89540746  0.80033547     0.11270
C312        C  0.36762393  0.91215679  0.75898753    -0.10880
H313        H  0.32587444  0.90539295  0.68285864     0.15250
H314        H  0.38238633  0.80810887  0.74464899     0.15250
H315        H  0.41928759  0.84319882  0.82440169     0.15250
H316        H  0.36358138  0.94128392  0.76143263     0.15250
C317        C  0.37498531  0.62181180  0.68065265    -0.10880
C318        C  0.35156384  0.64747820  0.70946437     0.11270
C319        C  0.34959779  0.65134081  0.78189161    -0.10880
C320        C  0.37101451  0.62954195  0.82523637    -0.10880
C321        C  0.39494900  0.60364310  0.79686612     0.11270
C322        C  0.39647989  0.60017360  0.72356368    -0.10880
H323        H  0.37666500  0.61855254  0.62463975     0.15250
H324        H  0.33148722  0.67109900  0.80479012     0.15250
H325        H  0.36903494  0.63290832  0.88115551     0.15250
H326        H  0.41414763  0.58075960  0.69862425     0.15250
C327        C  0.15248087  0.89069368  0.71646972    -0.10880
C328        C  0.14677941  0.85320335  0.70914386     0.11270
C329        C  0.11948470  0.83644654  0.74835514    -0.10880
C330        C  0.09826523  0.85677215  0.79427990    -0.10880
C331        C  0.10343450  0.89461794  0.80116304     0.11270
C332        C  0.13077975  0.91120638  0.76112258    -0.10880
H333        H  0.17310003  0.90438194  0.68623941     0.15250
H334        H  0.11444968  0.80757019  0.74334452     0.15250
H335        H  0.07735169  0.84275294  0.82302854     0.15250
H336        H  0.13524914  0.94025094  0.76436283     0.15250
C337        C  0.37793659  0.87534232  0.32538723    -0.10880
C338        C  0.35183817  0.85237332  0.29674943     0.11270
C339        C  0.34722645  0.85116045  0.22442072    -0.10880
C340        C  0.36877533  0.87279717  0.18099227    -0.10880
C341        C  0.39501527  0.89638065  0.20921392     0.11270
C342        C  0.39921394  0.89718379  0.28241728    -0.10880
H343        H  0.38174224  0.87647906  0.38132201     0.15250
H344        H  0.32709409  0.83344294  0.20165536     0.15250
H345        H  0.36490102  0.87131191  0.12513982     0.15250
H346        H  0.41901757  0.91445019  0.30720409     0.15250
C347        C  0.11969867  0.66285417  0.74944270    -0.10880
C348        C  0.14640034  0.64633613  0.70867266     0.11270
C349        C  0.15146222  0.60862387  0.71331281    -0.10880
C350        C  0.12972136  0.58765458  0.75713628    -0.10880
C351        C  0.10293536  0.60397382  0.79873227     0.11270
C352        C  0.09840428  0.64204621  0.79441318    -0.10880
H353        H  0.11525959  0.69191294  0.74650874     0.15250
H354        H  0.17165343  0.59517083  0.68173090     0.15250
H355        H  0.13375545  0.55850414  0.75864002     0.15250
H356        H  0.07805704  0.65597532  0.82468898     0.15250
C357        C  0.15200426  0.89094926  0.29085786    -0.10880
C358        C  0.14614369  0.85341440  0.29715102     0.11270
C359        C  0.11858242  0.83712332  0.25817713    -0.10880
C360        C  0.09729511  0.85795730  0.21325215    -0.10880
C361        C  0.10270934  0.89584463  0.20716383     0.11270
C362        C  0.13025646  0.91196906  0.24716688    -0.10880
H363        H  0.17285200  0.90425891  0.32104621     0.15250
H364        H  0.11345311  0.80822454  0.26248583     0.15250
H365        H  0.07623793  0.84423152  0.18446740     0.15250
H366        H  0.13492962  0.94100040  0.24444080     0.15250
C367        C  0.34606029  0.60877579  0.29129758    -0.10880
C368        C  0.35174319  0.64629252  0.29831601     0.11270
C369        C  0.37891420  0.66303898  0.25889351    -0.10880
C370        C  0.39997592  0.64270734  0.21285187    -0.10880
C371        C  0.39475662  0.60485036  0.20598903     0.11270
C372        C  0.36762915  0.58823063  0.24646672    -0.10880
H373        H  0.32552258  0.59512017  0.32178773     0.15250
H374        H  0.38392975  0.69192830  0.26372305     0.15250
H375        H  0.42076517  0.65678273  0.18387519     0.15250
H376        H  0.36315516  0.55918684  0.24325768     0.15250
C377        C  0.13072560  0.58856281  0.24522940    -0.10880
C378        C  0.10373219  0.60524594  0.20448326     0.11270
C379        C  0.09901730  0.64319436  0.21046114    -0.10880
C380        C  0.12027080  0.66351830  0.25632012    -0.10880
C381        C  0.14715658  0.64665055  0.29635125     0.11270
C382        C  0.15245654  0.60906228  0.28985675    -0.10880
H383        H  0.13486469  0.55945263  0.24260890     0.15250
H384        H  0.07843580  0.65731658  0.18104114     0.15250
H385        H  0.11558056  0.69248237  0.26065093     0.15250
H386        H  0.17276076  0.59530488  0.32073626     0.15250
N387        N  0.70630183  0.31811372  0.42246334    -0.03650
N388        N  0.69864053  0.34348717  0.37617059    -0.55770
N389        N  0.68146538  0.29312493  0.58225129    -0.03330
N390        N  0.65673898  0.30036003  0.62979973    -0.57900
N391        N  0.70629131  0.31871758  0.58133197    -0.02930
N392        N  0.69876659  0.34402268  0.62783859    -0.55750
N393        N  0.68134117  0.29268184  0.42239673    -0.02610
N394        N  0.65629898  0.30012973  0.37554987    -0.58250
C395        C  0.66757103  0.33179298  0.34687853     0.98520
C396        C  0.66795614  0.33208032  0.65809203     0.98300
N397        N  0.70637852  0.18168782  0.58311561    -0.03840
N398        N  0.69878107  0.15629441  0.62941341    -0.56350
N399        N  0.68164296  0.20671911  0.42340418    -0.01960
N400        N  0.65697379  0.19946036  0.37577031    -0.57600
N401        N  0.70653229  0.18120037  0.42428469    -0.03870
N402        N  0.69909100  0.15590145  0.37771284    -0.56620
N403        N  0.68141279  0.20710488  0.58331589    -0.01600
N404        N  0.65643402  0.19963448  0.63029529    -0.57690
Mn405      Mn  0.68055250  0.24990272  0.50286055     1.18440
C406        C  0.66775388  0.16797053  0.65887027     1.00610
C407        C  0.66828225  0.16779306  0.34742258     1.01270
N408        N  0.79185828  0.31900446  0.58081285    -0.03890
N409        N  0.79930555  0.34450169  0.62695126    -0.60200
N410        N  0.81681554  0.29253155  0.42219713    -0.02690
N411        N  0.84163190  0.29951735  0.37463450    -0.60870
N412        N  0.79158725  0.31771276  0.42125065    -0.03390
N413        N  0.79870266  0.34226290  0.37290085    -0.60460
N414        N  0.81671444  0.29348341  0.58205376    -0.02290
N415        N  0.84141470  0.30094089  0.62948695    -0.61150
Mn416      Mn  0.74904291  0.31927625  0.50145700     1.10660
C417        C  0.83011765  0.33273622  0.65730961     1.01830
C418        C  0.82958196  0.33016519  0.34344587     1.01900
N419        N  0.79213017  0.18115961  0.42524667    -0.03400
N420        N  0.79968598  0.15573969  0.37903613    -0.58780
N421        N  0.81664530  0.20758903  0.58443485    -0.02720
N422        N  0.84128455  0.20064121  0.63236334    -0.55510
N423        N  0.79159296  0.18221760  0.58466999    -0.04030
N424        N  0.79871345  0.15751050  0.63268793    -0.58340
N425        N  0.81701507  0.20666784  0.42444792    -0.03020
N426        N  0.84185050  0.19927225  0.37722286    -0.55530
Mn427      Mn  0.74919042  0.18068516  0.50427907     1.20190
Mn428      Mn  0.81774237  0.25006923  0.50331847     1.10090
Cl429      Cl  0.74912309  0.24998587  0.50297541    -0.83500
C430        C  0.83060209  0.16752641  0.34908416     0.98830
C431        C  0.82934053  0.16975305  0.66286976     0.98630
C432        C  0.91790905  0.41865446  0.84774622    -0.00020
C433        C  0.91821066  0.08033433  0.84520675    -0.00020
C434        C  0.57960319  0.41804745  0.84788922    -0.00020
C435        C  0.57943093  0.08018024  0.84537917    -0.00020
C436        C  0.98132178  0.99875174  0.77207333     0.03030
C437        C  0.51785454  0.99868659  0.77030963     0.03030
C438        C  0.91814043  0.41981000  0.16081722    -0.00020
C439        C  0.57925413  0.41967102  0.16051093    -0.00020
C440        C  0.97973027  0.38046668  0.00493776     0.03030
C441        C  0.51625298  0.38118160  0.00490095     0.03030
C442        C  0.57982350  0.08182780  0.15788922    -0.00020
C443        C  0.98143447  0.00126299  0.23386799     0.03030
C444        C  0.51796425  0.00132031  0.23570022     0.03030
C445        C  0.61835407  0.48142567  0.00320329     0.03030
C446        C  0.61840293  0.01833579  0.00255725     0.03030
C447        C  0.51653442  0.11881647  0.00099762     0.03030
C448        C  0.98001637  0.11957761  0.00087438     0.03030
C449        C  0.91821309  0.08157705  0.15837611    -0.00020
C450        C  0.87919799  0.48172712  0.00356748     0.03030
C451        C  0.87919156  0.01865398  0.00273432     0.03030
C452        C  0.89621894  0.05849969  0.11210281    -0.10810
C453        C  0.88473932  0.03946130  0.06587802    -0.12370
C454        C  0.95990049  0.11411470  0.06442442    -0.10810
C455        C  0.94166327  0.10265290  0.11155126    -0.12370
C456        C  0.94158514  0.05756579  0.19953174    -0.10810
C457        C  0.96095183  0.03409439  0.22238826    -0.12370
C458        C  0.53680371  0.11343305  0.06465477    -0.10810
C459        C  0.55566573  0.10251358  0.11148751    -0.12370
C460        C  0.61289035  0.03921053  0.06561372    -0.10810
C461        C  0.60151607  0.05855674  0.11145659    -0.12370
C462        C  0.55709062  0.05785159  0.20035604    -0.10810
C463        C  0.53828294  0.03420789  0.22419451    -0.12370
C464        C  0.53626465  0.38750560  0.06826870    -0.10810
C465        C  0.55486463  0.39912679  0.11467389    -0.12370
C466        C  0.60131516  0.44229309  0.11350983    -0.10810
C467        C  0.61284941  0.46114642  0.06700730    -0.12370
C468        C  0.55695778  0.44428183  0.20239617    -0.10810
C469        C  0.53837576  0.46836286  0.22518303    -0.12370
C470        C  0.95927880  0.38572398  0.06838791    -0.10810
C471        C  0.94072795  0.39727535  0.11506730    -0.12370
C472        C  0.89582673  0.44272448  0.11465058    -0.10810
C473        C  0.88451120  0.46147659  0.06767948    -0.12370
C474        C  0.94248423  0.44462716  0.19802354    -0.10810
C475        C  0.96143928  0.46838141  0.22079566    -0.12370
C476        C  0.55696281  0.05567198  0.80357013    -0.10810
C477        C  0.53829240  0.03163603  0.78083938    -0.12370
C478        C  0.61297438  0.03861194  0.93872051    -0.10810
C479        C  0.60148696  0.05746752  0.89218675    -0.12370
C480        C  0.53657368  0.11243793  0.93770452    -0.10810
C481        C  0.55515094  0.10075613  0.89133916    -0.12370
C482        C  0.53656759  0.38651678  0.94124928    -0.10810
C483        C  0.55543128  0.39737748  0.89433971    -0.12370
C484        C  0.55691753  0.44210369  0.80552621    -0.10630
C485        C  0.53813847  0.46578435  0.78176928    -0.12370
C486        C  0.60136284  0.44124682  0.89433680    -0.10810
C487        C  0.61279893  0.46056674  0.94015581    -0.12370
C488        C  0.89585481  0.05769207  0.89174399    -0.10810
C489        C  0.88450235  0.03893581  0.93867589    -0.12370
C490        C  0.96132844  0.03162029  0.78517758    -0.10810
C491        C  0.94238573  0.05536991  0.80797594    -0.12370
C492        C  0.95962609  0.11433358  0.93732989    -0.10810
C493        C  0.94108801  0.10282287  0.89058294    -0.12370
C494        C  0.89604774  0.44183881  0.89407841    -0.10810
C495        C  0.88468351  0.46090678  0.94038547    -0.12370
C496        C  0.94137326  0.39754531  0.89443937    -0.10810
C497        C  0.95965451  0.38600513  0.94140193    -0.12370
C498        C  0.94134328  0.44254043  0.80642103    -0.10810
C499        C  0.96079256  0.46593562  0.78350663    -0.12370
C500        C  0.84600220  0.39163950  0.71417058    -0.10880
C501        C  0.85116590  0.35400102  0.70816315     0.11270
C502        C  0.87780789  0.33710564  0.74863742    -0.10880
C503        C  0.89892150  0.35741915  0.79460433    -0.10880
C504        C  0.89430210  0.39540644  0.80034491     0.11270
C505        C  0.86761747  0.41215527  0.75899791    -0.10880
H506        H  0.82586852  0.40539091  0.68286823     0.15250
H507        H  0.88238332  0.30810797  0.74465527     0.15250
H508        H  0.91928322  0.34319830  0.82440978     0.15250
H509        H  0.86357405  0.44128225  0.76144386     0.15250
C510        C  0.87499061  0.12181209  0.68064573    -0.10880
C511        C  0.85156749  0.14747675  0.70945833     0.11270
C512        C  0.84960080  0.15133820  0.78188568    -0.10880
C513        C  0.87101836  0.12953989  0.82522974    -0.10880
C514        C  0.89495424  0.10364257  0.79685877     0.11270
C515        C  0.89648597  0.10017428  0.72355619    -0.10880
H516        H  0.87667094  0.11855386  0.62463268     0.15250
H517        H  0.83148911  0.17109515  0.80478484     0.15250
H518        H  0.86903821  0.13290535  0.88114900     0.15250
H519        H  0.91415495  0.08076156  0.69861637     0.15250
C520        C  0.65247542  0.39069504  0.71646089    -0.10880
C521        C  0.64677546  0.35320437  0.70913734     0.11270
C522        C  0.61948103  0.33644720  0.74834881    -0.10880
C523        C  0.59826080  0.35677267  0.79427244    -0.10880
C524        C  0.60342899  0.39461865  0.80115424     0.11270
C525        C  0.63077350  0.41120758  0.76111260    -0.10880
H526        H  0.67309421  0.40438357  0.68623009     0.15250
H527        H  0.61444704  0.30757059  0.74333969     0.15250
H528        H  0.57734776  0.34275310  0.82302181     0.15250
H529        H  0.63524197  0.44025232  0.76435166     0.15250
C530        C  0.87793831  0.37534281  0.32539265    -0.10880
C531        C  0.85183940  0.35237466  0.29675391     0.11270
C532        C  0.84722794  0.35116218  0.22442521    -0.10880
C533        C  0.86877750  0.37279852  0.18099757    -0.10880
C534        C  0.89501786  0.39638124  0.20922007     0.11270
C535        C  0.89921636  0.39718397  0.28242342    -0.10880
H536        H  0.88174381  0.37647908  0.38132750     0.15250
H537        H  0.82709530  0.33344521  0.20165923     0.15250
H538        H  0.86490334  0.37131362  0.12514504     0.15250
H539        H  0.91902033  0.41444983  0.30721066     0.15250
C540        C  0.61970297  0.16285494  0.74944907    -0.10880
C541        C  0.64640491  0.14633720  0.70867927     0.11270
C542        C  0.65146825  0.10862519  0.71332179    -0.10880
C543        C  0.62972814  0.08765576  0.75714635    -0.10880
C544        C  0.60294139  0.10397461  0.79874105     0.11270
C545        C  0.59840932  0.14204686  0.79442066    -0.10880
H546        H  0.61526288  0.19191352  0.74651356     0.15250
H547        H  0.67165983  0.09517237  0.68174042     0.15250
H548        H  0.63376310  0.05850547  0.75865128     0.15250
H549        H  0.57806157  0.15597568  0.82469568     0.15250
C550        C  0.65200742  0.39094806  0.29085050    -0.10880
C551        C  0.64614571  0.35341345  0.29714598     0.11270
C552        C  0.61858425  0.33712258  0.25817225    -0.10880
C553        C  0.59729761  0.35795655  0.21324593    -0.10880
C554        C  0.60271268  0.39584372  0.20715604     0.11270
C555        C  0.63026032  0.41196787  0.24715813    -0.10880
H556        H  0.67285542  0.40425760  0.32103837     0.15250
H557        H  0.61345413  0.30822401  0.26248242     0.15250
H558        H  0.57624007  0.34423096  0.18446184     0.15250
H559        H  0.63493419  0.44099905  0.24443082     0.15250
C560        C  0.84605743  0.10877733  0.29128956    -0.10880
C561        C  0.85174148  0.14629382  0.29830996     0.11270
C562        C  0.87891264  0.16304000  0.25888740    -0.10880
C563        C  0.89997366  0.14270827  0.21284457    -0.10880
C564        C  0.89475352  0.10485143  0.20598056     0.11270
C565        C  0.86762554  0.08823207  0.24645749    -0.10880
H566        H  0.82551949  0.09512189  0.32177941     0.15250
H567        H  0.88392901  0.19192912  0.26371815     0.15250
H568        H  0.92076327  0.15678340  0.18386837     0.15250
H569        H  0.86315084  0.05918843  0.24324752     0.15250
C570        C  0.63072207  0.08856181  0.24523787    -0.10880
C571        C  0.60372929  0.10524527  0.20449067     0.11270
C572        C  0.59901542  0.14319388  0.21046670    -0.10880
C573        C  0.62026964  0.16351779  0.25632432    -0.10880
C574        C  0.64715510  0.14664978  0.29635581     0.11270
C575        C  0.65245376  0.10906124  0.28986380    -0.10880
H576        H  0.63486029  0.05945147  0.24261879     0.15250
H577        H  0.57843439  0.15731634  0.18104591     0.15250
H578        H  0.61558036  0.19248209  0.26065352     0.15250
H579        H  0.67275763  0.09530370  0.32074395     0.15250
N580        N  0.70630167  0.81811394  0.42246402    -0.03650
N581        N  0.69863971  0.84348778  0.37617244    -0.55770
N582        N  0.68146601  0.79312506  0.58225214    -0.03330
N583        N  0.65674058  0.80035982  0.62980272    -0.57900
N584        N  0.70629227  0.81871741  0.58133263    -0.02930
N585        N  0.69876881  0.84402188  0.62784120    -0.55750
N586        N  0.68134106  0.79268201  0.42239761    -0.02610
N587        N  0.65629831  0.80013020  0.37555217    -0.58250
C588        C  0.66756991  0.83179369  0.34688142     0.98520
C589        C  0.66795874  0.83207955  0.65809604     0.98300
N590        N  0.70637702  0.68168761  0.58311513    -0.03840
N591        N  0.69877828  0.65629354  0.62941091    -0.56350
N592        N  0.68164262  0.70671923  0.42340341    -0.01960
N593        N  0.65697398  0.69946073  0.37576824    -0.57600
N594        N  0.70653199  0.68120052  0.42428418    -0.03870
N595        N  0.69909132  0.65590195  0.37771129    -0.56620
N596        N  0.68141165  0.70710498  0.58331515    -0.01600
N597        N  0.65643186  0.69963423  0.63029229    -0.57690
Mn598      Mn  0.68055226  0.74990291  0.50286060     1.18440
C599        C  0.66775069  0.66796971  0.65886625     1.00610
C600        C  0.66828285  0.66779363  0.34742002     1.01270
N601        N  0.79185930  0.81900503  0.58081151    -0.03890
N602        N  0.79930791  0.84450301  0.62694769    -0.60200
N603        N  0.81681537  0.79253106  0.42219585    -0.02690
N604        N  0.84163130  0.79951640  0.37463203    -0.60870
N605        N  0.79158712  0.81771231  0.42124928    -0.03390
N606        N  0.79870209  0.84226197  0.37289834    -0.60460
N607        N  0.81671506  0.79348362  0.58205249    -0.02290
N608        N  0.84141632  0.80094149  0.62948341    -0.61150
Mn609      Mn  0.74904328  0.81927631  0.50145665     1.10660
C610        C  0.83012039  0.83273750  0.65730472     1.01830
C611        C  0.82958109  0.83016398  0.34344260     1.01900
N612        N  0.79212992  0.68115911  0.42524836    -0.03400
N613        N  0.79968646  0.65573869  0.37903922    -0.58780
N614        N  0.81664407  0.70758937  0.58443651    -0.02720
N615        N  0.84128241  0.70064210  0.63236708    -0.55510
N616        N  0.79159149  0.68221814  0.58467165    -0.04030
N617        N  0.79871093  0.65751178  0.63269150    -0.58340
N618        N  0.81701473  0.70666742  0.42444959    -0.03020
N619        N  0.84185074  0.69927147  0.37722603    -0.55530
Mn620      Mn  0.74918959  0.68068514  0.50427966     1.20190
Mn621      Mn  0.81774205  0.75006908  0.50331867     1.10090
Cl622      Cl  0.74912282  0.74998589  0.50297551    -0.83500
C623        C  0.83060287  0.66752531  0.34908819     0.98830
C624        C  0.82933756  0.66975455  0.66287468     0.98630
C625        C  0.91791456  0.91865495  0.84773828    -0.00020
C626        C  0.91820519  0.58033472  0.84521436    -0.00020
C627        C  0.57960852  0.91804719  0.84789687    -0.00020
C628        C  0.57942521  0.58017982  0.84537169    -0.00020
C629        C  0.98131433  0.49875142  0.77207602     0.03030
C630        C  0.51784701  0.49868634  0.77030757     0.03030
C631        C  0.91813763  0.91980949  0.16081050    -0.00020
C632        C  0.57925109  0.91967169  0.16051795    -0.00020
C633        C  0.97973121  0.88046665  0.00493558     0.03030
C634        C  0.51625392  0.88118178  0.00490290     0.03030
C635        C  0.57982623  0.58182819  0.15788239    -0.00020
C636        C  0.98143908  0.50126265  0.23387063     0.03030
C637        C  0.51796894  0.50132000  0.23569796     0.03030
C638        C  0.61835573  0.98142567  0.00321306     0.03030
C639        C  0.61840122  0.51833581  0.00254751     0.03030
C640        C  0.51653308  0.61881644  0.00099594     0.03030
C641        C  0.98001502  0.61957755  0.00087678     0.03030
C642        C  0.91821588  0.58157637  0.15838354    -0.00020
C643        C  0.87919956  0.98172678  0.00355792     0.03030
C644        C  0.87918970  0.51865430  0.00274396     0.03030
C645        C  0.89622107  0.55849914  0.11211128    -0.10810
C646        C  0.88473988  0.53946135  0.06588713    -0.12370
C647        C  0.95990108  0.61411452  0.06442903    -0.10810
C648        C  0.94166512  0.60265251  0.11155749    -0.12370
C649        C  0.94158873  0.55756522  0.19953772    -0.10810
C650        C  0.96095605  0.53409398  0.22239282    -0.12370
C651        C  0.53680430  0.61343306  0.06465090    -0.10810
C652        C  0.55566751  0.60251377  0.11148207    -0.12370
C653        C  0.61289105  0.53921073  0.06560462    -0.10810
C654        C  0.60151828  0.55855729  0.11144843    -0.12370
C655        C  0.55709420  0.55785159  0.20035017    -0.10810
C656        C  0.53828723  0.53420765  0.22418994    -0.12370
C657        C  0.53626364  0.88750591  0.06827285    -0.10810
C658        C  0.55486245  0.89912729  0.11467957    -0.12370
C659        C  0.60131276  0.94229375  0.11351809    -0.10810
C660        C  0.61284859  0.96114665  0.06701647    -0.12370
C661        C  0.55695399  0.94428228  0.20240205    -0.10810
C662        C  0.53837138  0.96836320  0.22518752    -0.12370
C663        C  0.95927781  0.88572378  0.06838357    -0.10810
C664        C  0.94072588  0.89727492  0.11506165    -0.12370
C665        C  0.89582413  0.94272357  0.11464262    -0.10810
C666        C  0.88451014  0.96147603  0.06767057    -0.12370
C667        C  0.94248079  0.94462727  0.19801689    -0.10810
C668        C  0.96143512  0.96838176  0.22079034    -0.12370
C669        C  0.55695614  0.55567173  0.80356420    -0.10810
C670        C  0.53828515  0.53163580  0.78083513    -0.12370
C671        C  0.61297047  0.53861181  0.93871126    -0.10810
C672        C  0.60148182  0.55746703  0.89217810    -0.12370
C673        C  0.53657039  0.61243795  0.93770052    -0.10810
C674        C  0.55514630  0.60075604  0.89133321    -0.12370
C675        C  0.53657047  0.88651705  0.94125356    -0.10810
C676        C  0.55543550  0.89737763  0.89434588    -0.12370
C677        C  0.55692391  0.94210376  0.80553245    -0.10630
C678        C  0.53814558  0.96578457  0.78177385    -0.12370
C679        C  0.60136775  0.94124636  0.89434553    -0.10810
C680        C  0.61280273  0.96056658  0.94016512    -0.12370
C681        C  0.89584941  0.55769299  0.89175266    -0.10810
C682        C  0.88449811  0.53893639  0.93868512    -0.12370
C683        C  0.96132143  0.53161989  0.78518324    -0.10810
C684        C  0.94237947  0.55536966  0.80798328    -0.12370
C685        C  0.95962280  0.61433359  0.93733454    -0.10810
C686        C  0.94108347  0.60282304  0.89058926    -0.12370
C687        C  0.89605267  0.94183920  0.89406962    -0.10810
C688        C  0.88468722  0.96090662  0.94037637    -0.12370
C689        C  0.94137764  0.89754533  0.89443278    -0.10810
C690        C  0.95965743  0.88600504  0.94139738    -0.12370
C691        C  0.94134975  0.94254086  0.80641491    -0.10810
C692        C  0.96079963  0.96593598  0.78350213    -0.12370
C693        C  0.84600783  0.89164126  0.71416125    -0.10880
C694        C  0.85117006  0.85400250  0.70815576     0.11270
C695        C  0.87781189  0.83710675  0.74862991    -0.10880
C696        C  0.89892631  0.85742003  0.79459576    -0.10880
C697        C  0.89430790  0.89540746  0.80033547     0.11270
C698        C  0.86762393  0.91215679  0.75898754    -0.10880
H699        H  0.82587444  0.90539294  0.68285865     0.15250
H700        H  0.88238633  0.80810887  0.74464898     0.15250
H701        H  0.91928759  0.84319882  0.82440168     0.15250
H702        H  0.86358137  0.94128392  0.76143264     0.15250
C703        C  0.87498531  0.62181180  0.68065266    -0.10880
C704        C  0.85156384  0.64747820  0.70946437     0.11270
C705        C  0.84959779  0.65134081  0.78189161    -0.10880
C706        C  0.87101451  0.62954195  0.82523637    -0.10880
C707        C  0.89494900  0.60364310  0.79686612     0.11270
C708        C  0.89647988  0.60017360  0.72356368    -0.10880
H709        H  0.87666500  0.61855254  0.62463975     0.15250
H710        H  0.83148722  0.67109900  0.80479012     0.15250
H711        H  0.86903494  0.63290832  0.88115551     0.15250
H712        H  0.91414762  0.58075960  0.69862425     0.15250
C713        C  0.65248087  0.89069368  0.71646972    -0.10880
C714        C  0.64677941  0.85320335  0.70914386     0.11270
C715        C  0.61948469  0.83644655  0.74835513    -0.10880
C716        C  0.59826523  0.85677215  0.79427989    -0.10880
C717        C  0.60343450  0.89461794  0.80116304     0.11270
C718        C  0.63077975  0.91120638  0.76112259    -0.10880
H719        H  0.67310003  0.90438194  0.68623942     0.15250
H720        H  0.61444967  0.80757019  0.74334451     0.15250
H721        H  0.57735169  0.84275294  0.82302853     0.15250
H722        H  0.63524915  0.94025094  0.76436283     0.15250
C723        C  0.87793659  0.87534232  0.32538723    -0.10880
C724        C  0.85183817  0.85237332  0.29674943     0.11270
C725        C  0.84722645  0.85116046  0.22442072    -0.10880
C726        C  0.86877533  0.87279717  0.18099227    -0.10880
C727        C  0.89501527  0.89638065  0.20921392     0.11270
C728        C  0.89921394  0.89718379  0.28241728    -0.10880
H729        H  0.88174224  0.87647906  0.38132201     0.15250
H730        H  0.82709409  0.83344295  0.20165536     0.15250
H731        H  0.86490102  0.87131191  0.12513982     0.15250
H732        H  0.91901757  0.91445019  0.30720409     0.15250
C733        C  0.61969867  0.66285417  0.74944269    -0.10880
C734        C  0.64640034  0.64633614  0.70867266     0.11270
C735        C  0.65146222  0.60862387  0.71331282    -0.10880
C736        C  0.62972136  0.58765458  0.75713629    -0.10880
C737        C  0.60293536  0.60397382  0.79873227     0.11270
C738        C  0.59840428  0.64204621  0.79441317    -0.10880
H739        H  0.61525958  0.69191294  0.74650872     0.15250
H740        H  0.67165344  0.59517084  0.68173092     0.15250
H741        H  0.63375546  0.55850415  0.75864003     0.15250
H742        H  0.57805703  0.65597532  0.82468896     0.15250
C743        C  0.65200426  0.89094927  0.29085786    -0.10880
C744        C  0.64614369  0.85341440  0.29715101     0.11270
C745        C  0.61858242  0.83712333  0.25817713    -0.10880
C746        C  0.59729511  0.85795730  0.21325215    -0.10880
C747        C  0.60270934  0.89584463  0.20716383     0.11270
C748        C  0.63025646  0.91196906  0.24716687    -0.10880
H749        H  0.67285200  0.90425891  0.32104621     0.15250
H750        H  0.61345311  0.80822455  0.26248583     0.15250
H751        H  0.57623793  0.84423152  0.18446740     0.15250
H752        H  0.63492962  0.94100040  0.24444080     0.15250
C753        C  0.84606029  0.60877579  0.29129758    -0.10880
C754        C  0.85174319  0.64629252  0.29831601     0.11270
C755        C  0.87891419  0.66303898  0.25889350    -0.10880
C756        C  0.89997591  0.64270734  0.21285186    -0.10880
C757        C  0.89475662  0.60485036  0.20598903     0.11270
C758        C  0.86762915  0.58823063  0.24646672    -0.10880
H759        H  0.82552259  0.59512017  0.32178774     0.15250
H760        H  0.88392974  0.69192830  0.26372304     0.15250
H761        H  0.92076517  0.65678273  0.18387517     0.15250
H762        H  0.86315517  0.55918684  0.24325769     0.15250
C763        C  0.63072561  0.58856281  0.24522939    -0.10880
C764        C  0.60373219  0.60524594  0.20448326     0.11270
C765        C  0.59901730  0.64319436  0.21046114    -0.10880
C766        C  0.62027080  0.66351830  0.25632012    -0.10880
C767        C  0.64715658  0.64665055  0.29635125     0.11270
C768        C  0.65245654  0.60906228  0.28985674    -0.10880
H769        H  0.63486469  0.55945263  0.24260889     0.15250
H770        H  0.57843580  0.65731658  0.18104115     0.15250
H771        H  0.61558056  0.69248237  0.26065093     0.15250
H772        H  0.67276076  0.59530489  0.32073625     0.15250
loop_ 
_geom_bond_atom_site_label_1 
_geom_bond_atom_site_label_2 
_geom_bond_distance 
_geom_bond_site_symmetry_2 
_ccdc_geom_bond_type 
N1            N2   1.319       .  A
N1            N7   1.315       .  A
N1          Mn30   2.193       .  S
N2            C9   1.352       .  A
N3            N5   1.316       .  A
N3            N4   1.321       .  A
N3          Mn19   2.204       .  S
N4           C10   1.353       .  A
N5            N6   1.321       .  A
N5          Mn30   2.204       .  S
N6           C10   1.354       .  A
N7            N8   1.321       .  A
N7          Mn19   2.204       .  S
N8            C9   1.354       .  A
C9          C165   1.474       .  S
C10         C135   1.477       .  S
N11          N17   1.315       .  A
N11          N12   1.319       .  A
N11         Mn41   2.193       .  S
N12          C20   1.351       .  A
N13          N14   1.320       .  A
N13          N15   1.316       .  A
N13         Mn19   2.204       .  S
N14          C21   1.353       .  A
N15          N16   1.321       .  A
N15         Mn41   2.204       .  S
N16          C21   1.354       .  A
N17          N18   1.321       .  A
N17         Mn19   2.204       .  S
N18          C20   1.354       .  A
Mn19        Cl43   2.541       .  S
C20         C155   1.473       .  S
C21         C188   1.477       .  S
N22          N23   1.320       .  A
N22          N28   1.316       .  A
N22         Mn30   2.199       .  S
N23          C31   1.353       .  A
N24          N26   1.316       .  A
N24          N25   1.321       .  A
N24         Mn42   2.205       .  S
N25          C32   1.352       .  A
N26          N27   1.321       .  A
N26         Mn30   2.204       .  S
N27          C32   1.352       .  A
N28          N29   1.320       .  A
N28         Mn42   2.201       .  S
N29          C31   1.353       .  A
Mn30        Cl43   2.549       .  S
C31         C115   1.475       .  S
C32         C145   1.466       .  S
N33          N34   1.320       .  A
N33          N39   1.316       .  A
N33         Mn41   2.198       .  S
N34          C44   1.353       .  A
N35          N36   1.321       .  A
N35          N37   1.316       .  A
N35         Mn42   2.205       .  S
N36          C45   1.352       .  A
N37          N38   1.320       .  A
N37         Mn41   2.203       .  S
N38          C45   1.352       .  A
N39          N40   1.320       .  A
N39         Mn42   2.202       .  S
N40          C44   1.353       .  A
Mn41        Cl43   2.550       .  S
Mn42        Cl43   2.542       .  S
C44         C175   1.475       .  S
C45         C125   1.466       .  S
C46         C108   1.475       .  S
C46         C110   1.470       .  S
C46         C112   1.467       .  S
C46         C118   1.525       .  S
C47         C102   1.475       .  S
C47         C105   1.469       .  S
C47         C107   1.471       .  S
C47         C128   1.529       .  S
C48          C97   1.474       .  S
C48          C98   1.466       .  S
C48         C100   1.475       .  S
C48         C138   1.526       .  S
C49          C90   1.467       .  S
C49          C93   1.474       .  S
C49          C95   1.471       .  S
C49         C158   1.524       .  S
C50         C104   1.441   1_565  S
C50         C306   1.443       .  S
C50         C437   1.354       .  D
C51          C91   1.444   1_565  S
C51         C292   1.442       .  S
C51         C436   1.354   1_455  D
C52          C85   1.470       .  S
C52          C86   1.476       .  S
C52          C88   1.469       .  S
C52         C148   1.529       .  S
C53          C79   1.471       .  S
C53          C80   1.474       .  S
C53          C82   1.467       .  S
C53         C168   1.524       .  S
C54          C84   1.448       .  S
C54         C111   1.443   1_554  S
C54         C441   1.353       .  D
C55          C78   1.444       .  S
C55          C96   1.448   1_554  S
C55         C440   1.353   1_455  D
C56          C73   1.474       .  S
C56          C75   1.475       .  S
C56          C76   1.466       .  S
C56         C185   1.526       .  S
C57          C71   1.443       .  S
C57         C282   1.441   1_545  S
C57         C444   1.354       .  D
C58          C77   1.442       .  S
C58         C276   1.443   1_545  S
C58         C443   1.354   1_455  D
C59          C81   1.448       .  S
C59         C101   1.449   1_554  S
C59         C253   1.358       .  D
C60          C74   1.449       .  S
C60          C92   1.448   1_554  S
C60         C252   1.358   1_545  D
C61          C72   1.448       .  S
C61          C94   1.443   1_554  S
C61         C448   1.353   1_455  D
C62          C68   1.443       .  S
C62         C106   1.448   1_554  S
C62         C447   1.353       .  D
C63          C66   1.475       .  S
C63          C69   1.470       .  S
C63          C70   1.467       .  S
C63         C178   1.525       .  S
C64          C87   1.451       .  S
C64         C109   1.450   1_554  S
C64         C258   1.359       .  D
C65          C67   1.449       .  S
C65         C103   1.451   1_554  S
C65         C257   1.359   1_545  D
C66          C67   1.209       .  T
C68          C69   1.205       .  T
C70          C71   1.205       .  T
C72          C73   1.207       .  T
C74          C75   1.208       .  T
C76          C77   1.204       .  T
C78          C79   1.205       .  T
C80          C81   1.208       .  T
C82          C83   1.205       .  T
C83         C251   1.443       .  S
C84          C85   1.207       .  T
C86          C87   1.210       .  T
C88          C89   1.204       .  T
C89         C250   1.441       .  S
C90          C91   1.205       .  T
C92          C93   1.208       .  T
C94          C95   1.205       .  T
C96          C97   1.207       .  T
C98          C99   1.204       .  T
C99         C244   1.442       .  S
C100        C101   1.208       .  T
C102        C103   1.209       .  T
C104        C105   1.204       .  T
C106        C107   1.207       .  T
C108        C109   1.209       .  T
C110        C111   1.205       .  T
C112        C113   1.205       .  T
C113        C243   1.443       .  S
C114        C115   1.403       .  A
C114        C119   1.398       .  A
C114        H120   1.083       .  S
C115        C116   1.401       .  A
C116        C117   1.397       .  A
C116        H121   1.083       .  S
C117        C118   1.413       .  A
C117        H122   1.082       .  S
C118        C119   1.409       .  A
C119        H123   1.083       .  S
C124        C125   1.397       .  A
C124        C129   1.395       .  A
C124        H130   1.084       .  S
C125        C126   1.400       .  A
C126        C127   1.401       .  A
C126        H131   1.083       .  S
C127        C128   1.412       .  A
C127        H132   1.083       .  S
C128        C129   1.414       .  A
C129        H133   1.081       .  S
C134        C135   1.403       .  A
C134        C139   1.397       .  A
C134        H140   1.083       .  S
C135        C136   1.403       .  A
C136        C137   1.399       .  A
C136        H141   1.083       .  S
C137        C138   1.412       .  A
C137        H142   1.082       .  S
C138        C139   1.410       .  A
C139        H143   1.083       .  S
C144        C145   1.397       .  A
C144        C149   1.395       .  A
C144        H150   1.084       .  S
C145        C146   1.400       .  A
C146        C147   1.401       .  A
C146        H151   1.083       .  S
C147        C148   1.412       .  A
C147        H152   1.083       .  S
C148        C149   1.414       .  A
C149        H153   1.081       .  S
C154        C155   1.401       .  A
C154        C159   1.397       .  A
C154        H160   1.083       .  S
C155        C156   1.403       .  A
C156        C157   1.396       .  A
C156        H161   1.083       .  S
C157        C158   1.409       .  A
C157        H162   1.083       .  S
C158        C159   1.413       .  A
C159        H163   1.081       .  S
C164        C165   1.403       .  A
C164        C169   1.396       .  A
C164        H170   1.083       .  S
C165        C166   1.401       .  A
C166        C167   1.397       .  A
C166        H171   1.083       .  S
C167        C168   1.413       .  A
C167        H172   1.082       .  S
C168        C169   1.409       .  A
C169        H173   1.083       .  S
C174        C175   1.403       .  A
C174        C179   1.397       .  A
C174        H180   1.083       .  S
C175        C176   1.401       .  A
C176        C177   1.397       .  A
C176        H181   1.083       .  S
C177        C178   1.412       .  A
C177        H182   1.082       .  S
C178        C179   1.409       .  A
C179        H183   1.083       .  S
C184        C185   1.410       .  A
C184        C189   1.397       .  A
C184        H190   1.083       .  S
C185        C186   1.412       .  A
C186        C187   1.399       .  A
C186        H191   1.082       .  S
C187        C188   1.403       .  A
C187        H192   1.083       .  S
C188        C189   1.403       .  A
C189        H193   1.083       .  S
N194        N195   1.319       .  A
N194        N200   1.315       .  A
N194       Mn223   2.193       .  S
N195        C202   1.352       .  A
N196        N198   1.316       .  A
N196        N197   1.321       .  A
N196       Mn212   2.204       .  S
N197        C203   1.353       .  A
N198        N199   1.321       .  A
N198       Mn223   2.204       .  S
N199        C203   1.354       .  A
N200        N201   1.321       .  A
N200       Mn212   2.204       .  S
N201        C202   1.354       .  A
C202        C358   1.474       .  S
C203        C328   1.477       .  S
N204        N210   1.315       .  A
N204        N205   1.319       .  A
N204       Mn234   2.193       .  S
N205        C213   1.351       .  A
N206        N207   1.320       .  A
N206        N208   1.316       .  A
N206       Mn212   2.204       .  S
N207        C214   1.353       .  A
N208        N209   1.321       .  A
N208       Mn234   2.204       .  S
N209        C214   1.354       .  A
N210        N211   1.321       .  A
N210       Mn212   2.204       .  S
N211        C213   1.354       .  A
Mn212      Cl236   2.541       .  S
C213        C348   1.473       .  S
C214        C381   1.477       .  S
N215        N216   1.320       .  A
N215        N221   1.316       .  A
N215       Mn223   2.199       .  S
N216        C224   1.353       .  A
N217        N219   1.316       .  A
N217        N218   1.321       .  A
N217       Mn235   2.205       .  S
N218        C225   1.352       .  A
N219        N220   1.321       .  A
N219       Mn223   2.204       .  S
N220        C225   1.352       .  A
N221        N222   1.320       .  A
N221       Mn235   2.201       .  S
N222        C224   1.353       .  A
Mn223      Cl236   2.549       .  S
C224        C308   1.475       .  S
C225        C338   1.466       .  S
N226        N227   1.320       .  A
N226        N232   1.316       .  A
N226       Mn234   2.198       .  S
N227        C237   1.353       .  A
N228        N229   1.321       .  A
N228        N230   1.316       .  A
N228       Mn235   2.205       .  S
N229        C238   1.352       .  A
N230        N231   1.320       .  A
N230       Mn234   2.203       .  S
N231        C238   1.352       .  A
N232        N233   1.320       .  A
N232       Mn235   2.202       .  S
N233        C237   1.353       .  A
Mn234      Cl236   2.550       .  S
Mn235      Cl236   2.542       .  S
C237        C368   1.475       .  S
C238        C318   1.466       .  S
C239        C301   1.475       .  S
C239        C303   1.470       .  S
C239        C305   1.467       .  S
C239        C311   1.525       .  S
C240        C295   1.475       .  S
C240        C298   1.469       .  S
C240        C300   1.471       .  S
C240        C321   1.529       .  S
C241        C290   1.474       .  S
C241        C291   1.466       .  S
C241        C293   1.475       .  S
C241        C331   1.526       .  S
C242        C283   1.467       .  S
C242        C286   1.474       .  S
C242        C288   1.471       .  S
C242        C351   1.524       .  S
C243        C297   1.441       .  S
C243        C630   1.354       .  D
C244        C284   1.444       .  S
C244        C629   1.354   1_455  D
C245        C278   1.470       .  S
C245        C279   1.476       .  S
C245        C281   1.469       .  S
C245        C341   1.529       .  S
C246        C272   1.471       .  S
C246        C273   1.474       .  S
C246        C275   1.467       .  S
C246        C361   1.524       .  S
C247        C277   1.448       .  S
C247        C304   1.443   1_554  S
C247        C634   1.353       .  D
C248        C271   1.444       .  S
C248        C289   1.448   1_554  S
C248        C633   1.353   1_455  D
C249        C266   1.474       .  S
C249        C268   1.475       .  S
C249        C269   1.466       .  S
C249        C378   1.526       .  S
C250        C264   1.443       .  S
C250        C637   1.354       .  D
C251        C270   1.442       .  S
C251        C636   1.354   1_455  D
C252        C274   1.448       .  S
C252        C294   1.449   1_554  S
C253        C267   1.449       .  S
C253        C285   1.448   1_554  S
C254        C265   1.448       .  S
C254        C287   1.443   1_554  S
C254        C641   1.353   1_455  D
C255        C261   1.443       .  S
C255        C299   1.448   1_554  S
C255        C640   1.353       .  D
C256        C259   1.475       .  S
C256        C262   1.470       .  S
C256        C263   1.467       .  S
C256        C371   1.525       .  S
C257        C280   1.451       .  S
C257        C302   1.450   1_554  S
C258        C260   1.449       .  S
C258        C296   1.451   1_554  S
C259        C260   1.209       .  T
C261        C262   1.205       .  T
C263        C264   1.205       .  T
C265        C266   1.207       .  T
C267        C268   1.208       .  T
C269        C270   1.204       .  T
C271        C272   1.205       .  T
C273        C274   1.208       .  T
C275        C276   1.205       .  T
C277        C278   1.207       .  T
C279        C280   1.210       .  T
C281        C282   1.204       .  T
C283        C284   1.205       .  T
C285        C286   1.208       .  T
C287        C288   1.205       .  T
C289        C290   1.207       .  T
C291        C292   1.204       .  T
C293        C294   1.208       .  T
C295        C296   1.209       .  T
C297        C298   1.204       .  T
C299        C300   1.207       .  T
C301        C302   1.209       .  T
C303        C304   1.205       .  T
C305        C306   1.205       .  T
C307        C308   1.403       .  A
C307        C312   1.398       .  A
C307        H313   1.083       .  S
C308        C309   1.401       .  A
C309        C310   1.397       .  A
C309        H314   1.083       .  S
C310        C311   1.413       .  A
C310        H315   1.082       .  S
C311        C312   1.409       .  A
C312        H316   1.083       .  S
C317        C318   1.397       .  A
C317        C322   1.395       .  A
C317        H323   1.084       .  S
C318        C319   1.400       .  A
C319        C320   1.401       .  A
C319        H324   1.083       .  S
C320        C321   1.412       .  A
C320        H325   1.083       .  S
C321        C322   1.414       .  A
C322        H326   1.081       .  S
C327        C328   1.403       .  A
C327        C332   1.397       .  A
C327        H333   1.083       .  S
C328        C329   1.403       .  A
C329        C330   1.399       .  A
C329        H334   1.083       .  S
C330        C331   1.412       .  A
C330        H335   1.082       .  S
C331        C332   1.410       .  A
C332        H336   1.083       .  S
C337        C338   1.397       .  A
C337        C342   1.395       .  A
C337        H343   1.084       .  S
C338        C339   1.400       .  A
C339        C340   1.401       .  A
C339        H344   1.083       .  S
C340        C341   1.412       .  A
C340        H345   1.083       .  S
C341        C342   1.414       .  A
C342        H346   1.081       .  S
C347        C348   1.401       .  A
C347        C352   1.397       .  A
C347        H353   1.083       .  S
C348        C349   1.403       .  A
C349        C350   1.396       .  A
C349        H354   1.083       .  S
C350        C351   1.409       .  A
C350        H355   1.083       .  S
C351        C352   1.413       .  A
C352        H356   1.081       .  S
C357        C358   1.403       .  A
C357        C362   1.396       .  A
C357        H363   1.083       .  S
C358        C359   1.401       .  A
C359        C360   1.397       .  A
C359        H364   1.083       .  S
C360        C361   1.413       .  A
C360        H365   1.082       .  S
C361        C362   1.409       .  A
C362        H366   1.083       .  S
C367        C368   1.403       .  A
C367        C372   1.397       .  A
C367        H373   1.083       .  S
C368        C369   1.401       .  A
C369        C370   1.397       .  A
C369        H374   1.083       .  S
C370        C371   1.412       .  A
C370        H375   1.082       .  S
C371        C372   1.409       .  A
C372        H376   1.083       .  S
C377        C378   1.410       .  A
C377        C382   1.397       .  A
C377        H383   1.083       .  S
C378        C379   1.412       .  A
C379        C380   1.399       .  A
C379        H384   1.082       .  S
C380        C381   1.403       .  A
C380        H385   1.083       .  S
C381        C382   1.403       .  A
C382        H386   1.083       .  S
N387        N388   1.319       .  A
N387        N393   1.315       .  A
N387       Mn416   2.193       .  S
N388        C395   1.352       .  A
N389        N391   1.316       .  A
N389        N390   1.321       .  A
N389       Mn405   2.204       .  S
N390        C396   1.353       .  A
N391        N392   1.321       .  A
N391       Mn416   2.204       .  S
N392        C396   1.354       .  A
N393        N394   1.321       .  A
N393       Mn405   2.204       .  S
N394        C395   1.354       .  A
C395        C551   1.474       .  S
C396        C521   1.477       .  S
N397        N403   1.315       .  A
N397        N398   1.319       .  A
N397       Mn427   2.193       .  S
N398        C406   1.351       .  A
N399        N400   1.320       .  A
N399        N401   1.316       .  A
N399       Mn405   2.204       .  S
N400        C407   1.353       .  A
N401        N402   1.321       .  A
N401       Mn427   2.204       .  S
N402        C407   1.354       .  A
N403        N404   1.321       .  A
N403       Mn405   2.204       .  S
N404        C406   1.354       .  A
Mn405      Cl429   2.541       .  S
C406        C541   1.473       .  S
C407        C574   1.477       .  S
N408        N409   1.320       .  A
N408        N414   1.316       .  A
N408       Mn416   2.199       .  S
N409        C417   1.353       .  A
N410        N412   1.316       .  A
N410        N411   1.321       .  A
N410       Mn428   2.205       .  S
N411        C418   1.352       .  A
N412        N413   1.321       .  A
N412       Mn416   2.204       .  S
N413        C418   1.352       .  A
N414        N415   1.320       .  A
N414       Mn428   2.201       .  S
N415        C417   1.353       .  A
Mn416      Cl429   2.549       .  S
C417        C501   1.475       .  S
C418        C531   1.466       .  S
N419        N420   1.320       .  A
N419        N425   1.316       .  A
N419       Mn427   2.198       .  S
N420        C430   1.353       .  A
N421        N422   1.321       .  A
N421        N423   1.316       .  A
N421       Mn428   2.205       .  S
N422        C431   1.352       .  A
N423        N424   1.320       .  A
N423       Mn427   2.203       .  S
N424        C431   1.352       .  A
N425        N426   1.320       .  A
N425       Mn428   2.202       .  S
N426        C430   1.353       .  A
Mn427      Cl429   2.550       .  S
Mn428      Cl429   2.542       .  S
C430        C561   1.475       .  S
C431        C511   1.466       .  S
C432        C494   1.475       .  S
C432        C496   1.470       .  S
C432        C498   1.467       .  S
C432        C504   1.525       .  S
C433        C488   1.475       .  S
C433        C491   1.469       .  S
C433        C493   1.471       .  S
C433        C514   1.529       .  S
C434        C483   1.474       .  S
C434        C484   1.466       .  S
C434        C486   1.475       .  S
C434        C524   1.526       .  S
C435        C476   1.467       .  S
C435        C479   1.474       .  S
C435        C481   1.471       .  S
C435        C544   1.524       .  S
C436        C490   1.441   1_565  S
C436        C692   1.443       .  S
C437        C477   1.444   1_565  S
C437        C678   1.442       .  S
C438        C471   1.470       .  S
C438        C472   1.476       .  S
C438        C474   1.469       .  S
C438        C534   1.529       .  S
C439        C465   1.471       .  S
C439        C466   1.474       .  S
C439        C468   1.467       .  S
C439        C554   1.524       .  S
C440        C470   1.448       .  S
C440        C497   1.443   1_554  S
C441        C464   1.444       .  S
C441        C482   1.448   1_554  S
C442        C459   1.474       .  S
C442        C461   1.475       .  S
C442        C462   1.466       .  S
C442        C571   1.526       .  S
C443        C457   1.443       .  S
C443        C668   1.441   1_545  S
C444        C463   1.442       .  S
C444        C662   1.443   1_545  S
C445        C467   1.448       .  S
C445        C487   1.449   1_554  S
C445        C639   1.358       .  D
C446        C460   1.449       .  S
C446        C478   1.448   1_554  S
C446        C638   1.358   1_545  D
C447        C458   1.448       .  S
C447        C480   1.443   1_554  S
C448        C454   1.443       .  S
C448        C492   1.448   1_554  S
C449        C452   1.475       .  S
C449        C455   1.470       .  S
C449        C456   1.467       .  S
C449        C564   1.525       .  S
C450        C473   1.451       .  S
C450        C495   1.450   1_554  S
C450        C644   1.359       .  D
C451        C453   1.449       .  S
C451        C489   1.451   1_554  S
C451        C643   1.359   1_545  D
C452        C453   1.209       .  T
C454        C455   1.205       .  T
C456        C457   1.205       .  T
C458        C459   1.207       .  T
C460        C461   1.208       .  T
C462        C463   1.204       .  T
C464        C465   1.205       .  T
C466        C467   1.208       .  T
C468        C469   1.205       .  T
C469        C637   1.443       .  S
C470        C471   1.207       .  T
C472        C473   1.210       .  T
C474        C475   1.204       .  T
C475        C636   1.441       .  S
C476        C477   1.205       .  T
C478        C479   1.208       .  T
C480        C481   1.205       .  T
C482        C483   1.207       .  T
C484        C485   1.204       .  T
C485        C630   1.442       .  S
C486        C487   1.208       .  T
C488        C489   1.209       .  T
C490        C491   1.204       .  T
C492        C493   1.207       .  T
C494        C495   1.209       .  T
C496        C497   1.205       .  T
C498        C499   1.205       .  T
C499        C629   1.443       .  S
C500        C501   1.403       .  A
C500        C505   1.398       .  A
C500        H506   1.083       .  S
C501        C502   1.401       .  A
C502        C503   1.397       .  A
C502        H507   1.083       .  S
C503        C504   1.413       .  A
C503        H508   1.082       .  S
C504        C505   1.409       .  A
C505        H509   1.083       .  S
C510        C511   1.397       .  A
C510        C515   1.395       .  A
C510        H516   1.084       .  S
C511        C512   1.400       .  A
C512        C513   1.401       .  A
C512        H517   1.083       .  S
C513        C514   1.412       .  A
C513        H518   1.083       .  S
C514        C515   1.414       .  A
C515        H519   1.081       .  S
C520        C521   1.403       .  A
C520        C525   1.397       .  A
C520        H526   1.083       .  S
C521        C522   1.403       .  A
C522        C523   1.399       .  A
C522        H527   1.083       .  S
C523        C524   1.412       .  A
C523        H528   1.082       .  S
C524        C525   1.410       .  A
C525        H529   1.083       .  S
C530        C531   1.397       .  A
C530        C535   1.395       .  A
C530        H536   1.084       .  S
C531        C532   1.400       .  A
C532        C533   1.401       .  A
C532        H537   1.083       .  S
C533        C534   1.412       .  A
C533        H538   1.083       .  S
C534        C535   1.414       .  A
C535        H539   1.081       .  S
C540        C541   1.401       .  A
C540        C545   1.397       .  A
C540        H546   1.083       .  S
C541        C542   1.403       .  A
C542        C543   1.396       .  A
C542        H547   1.083       .  S
C543        C544   1.409       .  A
C543        H548   1.083       .  S
C544        C545   1.413       .  A
C545        H549   1.081       .  S
C550        C551   1.403       .  A
C550        C555   1.396       .  A
C550        H556   1.083       .  S
C551        C552   1.401       .  A
C552        C553   1.397       .  A
C552        H557   1.083       .  S
C553        C554   1.413       .  A
C553        H558   1.082       .  S
C554        C555   1.409       .  A
C555        H559   1.083       .  S
C560        C561   1.403       .  A
C560        C565   1.397       .  A
C560        H566   1.083       .  S
C561        C562   1.401       .  A
C562        C563   1.397       .  A
C562        H567   1.083       .  S
C563        C564   1.412       .  A
C563        H568   1.082       .  S
C564        C565   1.409       .  A
C565        H569   1.083       .  S
C570        C571   1.410       .  A
C570        C575   1.397       .  A
C570        H576   1.083       .  S
C571        C572   1.412       .  A
C572        C573   1.399       .  A
C572        H577   1.082       .  S
C573        C574   1.403       .  A
C573        H578   1.083       .  S
C574        C575   1.403       .  A
C575        H579   1.083       .  S
N580        N581   1.319       .  A
N580        N586   1.315       .  A
N580       Mn609   2.193       .  S
N581        C588   1.352       .  A
N582        N584   1.316       .  A
N582        N583   1.321       .  A
N582       Mn598   2.204       .  S
N583        C589   1.353       .  A
N584        N585   1.321       .  A
N584       Mn609   2.204       .  S
N585        C589   1.354       .  A
N586        N587   1.321       .  A
N586       Mn598   2.204       .  S
N587        C588   1.354       .  A
C588        C744   1.474       .  S
C589        C714   1.477       .  S
N590        N596   1.315       .  A
N590        N591   1.319       .  A
N590       Mn620   2.193       .  S
N591        C599   1.351       .  A
N592        N593   1.320       .  A
N592        N594   1.316       .  A
N592       Mn598   2.204       .  S
N593        C600   1.353       .  A
N594        N595   1.321       .  A
N594       Mn620   2.204       .  S
N595        C600   1.354       .  A
N596        N597   1.321       .  A
N596       Mn598   2.204       .  S
N597        C599   1.354       .  A
Mn598      Cl622   2.541       .  S
C599        C734   1.473       .  S
C600        C767   1.477       .  S
N601        N602   1.320       .  A
N601        N607   1.316       .  A
N601       Mn609   2.199       .  S
N602        C610   1.353       .  A
N603        N605   1.316       .  A
N603        N604   1.321       .  A
N603       Mn621   2.205       .  S
N604        C611   1.352       .  A
N605        N606   1.321       .  A
N605       Mn609   2.204       .  S
N606        C611   1.352       .  A
N607        N608   1.320       .  A
N607       Mn621   2.201       .  S
N608        C610   1.353       .  A
Mn609      Cl622   2.549       .  S
C610        C694   1.475       .  S
C611        C724   1.466       .  S
N612        N613   1.320       .  A
N612        N618   1.316       .  A
N612       Mn620   2.198       .  S
N613        C623   1.353       .  A
N614        N615   1.321       .  A
N614        N616   1.316       .  A
N614       Mn621   2.205       .  S
N615        C624   1.352       .  A
N616        N617   1.320       .  A
N616       Mn620   2.203       .  S
N617        C624   1.352       .  A
N618        N619   1.320       .  A
N618       Mn621   2.202       .  S
N619        C623   1.353       .  A
Mn620      Cl622   2.550       .  S
Mn621      Cl622   2.542       .  S
C623        C754   1.475       .  S
C624        C704   1.466       .  S
C625        C687   1.475       .  S
C625        C689   1.470       .  S
C625        C691   1.467       .  S
C625        C697   1.525       .  S
C626        C681   1.475       .  S
C626        C684   1.469       .  S
C626        C686   1.471       .  S
C626        C707   1.529       .  S
C627        C676   1.474       .  S
C627        C677   1.466       .  S
C627        C679   1.475       .  S
C627        C717   1.526       .  S
C628        C669   1.467       .  S
C628        C672   1.474       .  S
C628        C674   1.471       .  S
C628        C737   1.524       .  S
C629        C683   1.441       .  S
C630        C670   1.444       .  S
C631        C664   1.470       .  S
C631        C665   1.476       .  S
C631        C667   1.469       .  S
C631        C727   1.529       .  S
C632        C658   1.471       .  S
C632        C659   1.474       .  S
C632        C661   1.467       .  S
C632        C747   1.524       .  S
C633        C663   1.448       .  S
C633        C690   1.443   1_554  S
C634        C657   1.444       .  S
C634        C675   1.448   1_554  S
C635        C652   1.474       .  S
C635        C654   1.475       .  S
C635        C655   1.466       .  S
C635        C764   1.526       .  S
C636        C650   1.443       .  S
C637        C656   1.442       .  S
C638        C660   1.448       .  S
C638        C680   1.449   1_554  S
C639        C653   1.449       .  S
C639        C671   1.448   1_554  S
C640        C651   1.448       .  S
C640        C673   1.443   1_554  S
C641        C647   1.443       .  S
C641        C685   1.448   1_554  S
C642        C645   1.475       .  S
C642        C648   1.470       .  S
C642        C649   1.467       .  S
C642        C757   1.525       .  S
C643        C666   1.451       .  S
C643        C688   1.450   1_554  S
C644        C646   1.449       .  S
C644        C682   1.451   1_554  S
C645        C646   1.209       .  T
C647        C648   1.205       .  T
C649        C650   1.205       .  T
C651        C652   1.207       .  T
C653        C654   1.208       .  T
C655        C656   1.204       .  T
C657        C658   1.205       .  T
C659        C660   1.208       .  T
C661        C662   1.205       .  T
C663        C664   1.207       .  T
C665        C666   1.210       .  T
C667        C668   1.204       .  T
C669        C670   1.205       .  T
C671        C672   1.208       .  T
C673        C674   1.205       .  T
C675        C676   1.207       .  T
C677        C678   1.204       .  T
C679        C680   1.208       .  T
C681        C682   1.209       .  T
C683        C684   1.204       .  T
C685        C686   1.207       .  T
C687        C688   1.209       .  T
C689        C690   1.205       .  T
C691        C692   1.205       .  T
C693        C694   1.403       .  A
C693        C698   1.398       .  A
C693        H699   1.083       .  S
C694        C695   1.401       .  A
C695        C696   1.397       .  A
C695        H700   1.083       .  S
C696        C697   1.413       .  A
C696        H701   1.082       .  S
C697        C698   1.409       .  A
C698        H702   1.083       .  S
C703        C704   1.397       .  A
C703        C708   1.395       .  A
C703        H709   1.084       .  S
C704        C705   1.400       .  A
C705        C706   1.401       .  A
C705        H710   1.083       .  S
C706        C707   1.412       .  A
C706        H711   1.083       .  S
C707        C708   1.414       .  A
C708        H712   1.081       .  S
C713        C714   1.403       .  A
C713        C718   1.397       .  A
C713        H719   1.083       .  S
C714        C715   1.403       .  A
C715        C716   1.399       .  A
C715        H720   1.083       .  S
C716        C717   1.412       .  A
C716        H721   1.082       .  S
C717        C718   1.410       .  A
C718        H722   1.083       .  S
C723        C724   1.397       .  A
C723        C728   1.395       .  A
C723        H729   1.084       .  S
C724        C725   1.400       .  A
C725        C726   1.401       .  A
C725        H730   1.083       .  S
C726        C727   1.412       .  A
C726        H731   1.083       .  S
C727        C728   1.414       .  A
C728        H732   1.081       .  S
C733        C734   1.401       .  A
C733        C738   1.397       .  A
C733        H739   1.083       .  S
C734        C735   1.403       .  A
C735        C736   1.396       .  A
C735        H740   1.083       .  S
C736        C737   1.409       .  A
C736        H741   1.083       .  S
C737        C738   1.413       .  A
C738        H742   1.081       .  S
C743        C744   1.403       .  A
C743        C748   1.396       .  A
C743        H749   1.083       .  S
C744        C745   1.401       .  A
C745        C746   1.397       .  A
C745        H750   1.083       .  S
C746        C747   1.413       .  A
C746        H751   1.082       .  S
C747        C748   1.409       .  A
C748        H752   1.083       .  S
C753        C754   1.403       .  A
C753        C758   1.397       .  A
C753        H759   1.083       .  S
C754        C755   1.401       .  A
C755        C756   1.397       .  A
C755        H760   1.083       .  S
C756        C757   1.412       .  A
C756        H761   1.082       .  S
C757        C758   1.409       .  A
C758        H762   1.083       .  S
C763        C764   1.410       .  A
C763        C768   1.397       .  A
C763        H769   1.083       .  S
C764        C765   1.412       .  A
C765        C766   1.399       .  A
C765        H770   1.082       .  S
C766        C767   1.403       .  A
C766        H771   1.083       .  S
C767        C768   1.403       .  A
C768        H772   1.083       .  S
