geometry optimzed in LAMMPS
_audit_creation_date              2020-11-30 
_audit_creation_method            'lammps2cif' 
_symmetry_space_group_name_H-M    'P1' 
_symmetry_Int_Tables_number       1 
_symmetry_cell_setting            triclinic 
loop_ 
_symmetry_equiv_pos_as_xyz 
  x,y,z 
_cell_length_a                    41.54284582708637 
_cell_length_b                    41.69961130166956 
_cell_length_c                    41.81907088117497 
_cell_angle_alpha                 88.7439725634298 
_cell_angle_beta                  91.7610881364026 
_cell_angle_gamma                 91.82662867141467 
loop_ 
_atom_site_label 
_atom_site_type_symbol 
_atom_site_fract_x 
_atom_site_fract_y 
_atom_site_fract_z 
_atom_site_charge 
N1          N  0.44343292  0.33069755  0.54830722    -0.05500
N2          N  0.44072718  0.32747280  0.57946114    -0.57620
N3          N  0.41916018  0.36118452  0.47888959    -0.05180
N4          N  0.40083117  0.38509568  0.48545185    -0.59750
N5          N  0.40439996  0.33394033  0.48654916    -0.04780
N6          N  0.37617199  0.33927614  0.49827173    -0.57590
N7          N  0.45996580  0.35675898  0.54056504    -0.04450
N8          N  0.46958599  0.37201488  0.56643309    -0.60100
C9          C  0.45731864  0.35333119  0.59015725     0.96680
C10         C  0.37535175  0.37120086  0.49995374     0.96460
N11         N  0.50091945  0.35694003  0.42649895    -0.05680
N12         N  0.49342451  0.35242692  0.39623245    -0.58200
N13         N  0.52013371  0.37221834  0.50414576    -0.03800
N14         N  0.52933295  0.37917181  0.53368174    -0.59450
N15         N  0.54204537  0.35557516  0.49058310    -0.05710
N16         N  0.56635258  0.35079816  0.51086426    -0.58460
N17         N  0.47840847  0.37313368  0.43979482    -0.03450
N18         N  0.45492195  0.37911540  0.41866155    -0.59540
Mn19       Mn  0.47001867  0.36727007  0.49041659     1.18440
C20         C  0.46464851  0.36578673  0.39171050     0.98760
C21         C  0.55778847  0.36502664  0.53776675     0.99420
N22         N  0.41838012  0.26693337  0.47634782    -0.05730
N23         N  0.38886967  0.26643273  0.46565693    -0.62040
N24         N  0.47984109  0.24851470  0.53407567    -0.04540
N25         N  0.49686434  0.24551865  0.56186417    -0.62720
N26         N  0.45172645  0.25994634  0.54051000    -0.05240
N27         N  0.44795274  0.26200492  0.57126337    -0.62310
N28         N  0.43497911  0.24284178  0.46719587    -0.04140
N29         N  0.41429885  0.22330138  0.45087774    -0.63000
Mn30       Mn  0.42982670  0.29724629  0.51223294     1.10660
C31         C  0.38554876  0.23937451  0.45009270     0.99980
C32         C  0.47581724  0.25375932  0.58507527     1.00060
N33         N  0.55622690  0.28753642  0.47941391    -0.05250
N34         N  0.58715309  0.29175384  0.48512136    -0.60620
N35         N  0.49973629  0.25847775  0.42624840    -0.04570
N36         N  0.49013395  0.24377835  0.39928013    -0.57350
N37         N  0.51549478  0.28540971  0.41860819    -0.05880
N38         N  0.51803599  0.28885670  0.38747862    -0.60190
N39         N  0.54514387  0.25969557  0.49046972    -0.04860
N40         N  0.57001976  0.24407664  0.50409382    -0.57370
Mn41       Mn  0.52949956  0.32225593  0.45303240     1.20190
Mn42       Mn  0.49046343  0.24890371  0.47987608     1.10090
Cl43       Cl  0.48047513  0.30835321  0.48367708    -0.85340
C44         C  0.59605541  0.26513094  0.50068803     0.96990
C45         C  0.50227427  0.26310856  0.37521411     0.96790
N46         N  0.48299417  0.43630124  0.30987167    -0.05500
N47         N  0.45457834  0.42400435  0.31710683    -0.57620
N48         N  0.56298103  0.44690329  0.30140701    -0.05180
N49         N  0.59012765  0.43204648  0.30611746    -0.59750
N50         N  0.55238547  0.45792505  0.32792776    -0.04780
N51         N  0.57242082  0.45095849  0.35191964    -0.57590
N52         N  0.49393862  0.42243671  0.28484694    -0.04450
N53         N  0.47311560  0.40007000  0.27464735    -0.60100
C54         C  0.44839241  0.40140374  0.29486764     0.96680
C55         C  0.59553194  0.43447317  0.33769659     0.96460
N56         N  0.56410272  0.49748360  0.21549259    -0.05680
N57         N  0.59279128  0.51246859  0.21135726    -0.58200
N58         N  0.50823349  0.43883179  0.21934801    -0.03800
N59         N  0.50159316  0.40874206  0.21533107    -0.59450
N60         N  0.49425754  0.45814993  0.19864619    -0.05710
N61         N  0.47594081  0.43865320  0.17921265    -0.58460
N62         N  0.56916971  0.47087556  0.23244044    -0.03450
N63         N  0.59966130  0.46658907  0.23873959    -0.59540
Mn64       Mn  0.53408602  0.44512441  0.25921386     1.18440
C65         C  0.61461171  0.49208307  0.22569313     0.98760
C66         C  0.48133101  0.40750502  0.19103359     0.99420
N67         N  0.52836625  0.52565899  0.33864917    -0.05730
N68         N  0.54983832  0.53233342  0.36155594    -0.62040
N69         N  0.45376473  0.52738596  0.30629978    -0.04540
N70         N  0.42292047  0.53177997  0.30123539    -0.62720
N71         N  0.45866349  0.50098205  0.32280792    -0.05240
N72         N  0.43097101  0.48650692  0.32892131    -0.62310
N73         N  0.52322649  0.55103341  0.32040271    -0.04140
N74         N  0.54108844  0.57547019  0.33023842    -0.63000
Mn75       Mn  0.50548866  0.48014259  0.32682842     1.10660
C76         C  0.55775339  0.56357251  0.35577319     0.99980
C77         C  0.40880674  0.50596254  0.31506705     1.00060
N78         N  0.45922430  0.52995125  0.21445727    -0.05250
N79         N  0.43004456  0.52401832  0.20102776    -0.60620
N80         N  0.52470578  0.57462142  0.25184290    -0.04570
N81         N  0.52928746  0.60533996  0.25695893    -0.57350
N82         N  0.52589892  0.56759628  0.22141187    -0.05880
N83         N  0.52990905  0.59561208  0.20502691    -0.60190
N84         N  0.45623039  0.54924558  0.23865489    -0.04860
N85         N  0.42636938  0.55791261  0.24113679    -0.57370
Mn86       Mn  0.51065907  0.51332889  0.20891095     1.20190
Mn87       Mn  0.48995585  0.55106901  0.27974225     1.10090
Cl88       Cl  0.51027798  0.49765910  0.26827655    -0.85340
C89         C  0.40988952  0.54237045  0.21801501     0.96990
C90         C  0.53265883  0.61892911  0.22818553     0.96790
N91         N  0.45742040  0.71867073  0.53523489    -0.05500
N92         N  0.42828481  0.71694250  0.52270419    -0.57620
N93         N  0.52536827  0.71637473  0.57906910    -0.05180
N94         N  0.54310703  0.70885057  0.60467083    -0.59750
N95         N  0.50781358  0.74094431  0.58489122    -0.04780
N96         N  0.51347643  0.75088399  0.61391191    -0.57590
N97         N  0.47444267  0.69469815  0.52594754    -0.04450
N98         N  0.45695962  0.67689149  0.50561273    -0.60100
C99         C  0.42816975  0.69133076  0.50415452     0.96680
C100        C  0.53529701  0.73084226  0.62636299     0.96460
N101        N  0.59069807  0.72602112  0.51018581    -0.05680
N102        N  0.62111496  0.73290005  0.51580716    -0.58200
N103        N  0.53039654  0.68213530  0.48200999    -0.03800
N104        N  0.53114584  0.65264994  0.47121864    -0.59450
N105        N  0.54058676  0.70274480  0.46023890    -0.05710
N106        N  0.54804471  0.68818488  0.43431176    -0.58460
N107        N  0.57927882  0.70682960  0.53254368    -0.03450
N108        N  0.60259953  0.69931565  0.55347441    -0.59540
Mn109      Mn  0.52711690  0.69777637  0.53102520     1.18440
C110        C  0.62882310  0.71622615  0.54251966     0.98760
C111        C  0.54211713  0.65713465  0.44122297     0.99420
N112        N  0.49540738  0.80965654  0.56605448    -0.05730
N113        N  0.49794552  0.81222352  0.59715946    -0.62040
N114        N  0.46298351  0.80580448  0.49183201    -0.04540
N115        N  0.43962535  0.81022629  0.46904747    -0.62720
N116        N  0.45010938  0.78839452  0.51493908    -0.05240
N117        N  0.41947194  0.78192259  0.50966166    -0.62310
N118        N  0.52088411  0.82152970  0.55170381    -0.04140
N119        N  0.54323254  0.82890556  0.57475080    -0.63000
Mn120      Mn  0.47716578  0.76418369  0.55067111     1.10660
C121        C  0.52785287  0.82329945  0.60338049     0.99980
C122        C  0.41216440  0.79525996  0.48120274     1.00060
N123        N  0.53532252  0.77182148  0.43672285    -0.05250
N124        N  0.53344604  0.76400963  0.40660323    -0.60620
N125        N  0.57673648  0.81425548  0.49750314    -0.04570
N126        N  0.60203706  0.83001857  0.51159655    -0.57350
N127        N  0.58816163  0.79076796  0.48147128    -0.05880
N128        N  0.61956380  0.79057045  0.48245119    -0.60190
N129        N  0.52021453  0.79822809  0.44237069    -0.04860
N130        N  0.50695433  0.80886339  0.41470342    -0.57370
Mn131      Mn  0.56296803  0.74763376  0.47180300     1.20190
Mn132      Mn  0.52020494  0.81334431  0.49572822     1.10090
Cl133      Cl  0.52158523  0.75594491  0.51184541    -0.85340
C134        C  0.51564074  0.78678806  0.39280435     0.96990
C135        C  0.62875313  0.81451425  0.50128148     0.96790
N136        N  0.68864550  0.52538253  0.43392418    -0.05500
N137        N  0.69395453  0.50593141  0.41038410    -0.57620
N138        N  0.66618845  0.57781169  0.48931460    -0.05180
N139        N  0.65939166  0.60004294  0.50980360    -0.59750
N140        N  0.68760244  0.58952591  0.46938605    -0.04780
N141        N  0.69466563  0.61977032  0.47521503    -0.57590
N142        N  0.66666857  0.51266194  0.45269131    -0.04450
N143        N  0.65689118  0.48435477  0.44242812    -0.60100
C144        C  0.67439182  0.48034799  0.41636079     0.96680
C145        C  0.67768709  0.62568938  0.50084377     0.96460
N146        N  0.68526635  0.53056712  0.57116279    -0.05680
N147        N  0.68369988  0.54670062  0.59789584    -0.58200
N148        N  0.66278774  0.47625071  0.51767226    -0.03800
N149        N  0.63849552  0.45522635  0.51864224    -0.59450
N150        N  0.68638238  0.46646070  0.53656480    -0.05710
N151        N  0.67941203  0.43859986  0.55009986    -0.58460
N152        N  0.66260836  0.53944209  0.55074339    -0.03450
N153        N  0.64495386  0.56132719  0.56278972    -0.59540
Mn154      Mn  0.66286377  0.52658407  0.50165441     1.18440
C155        C  0.65849820  0.56600020  0.59192309     0.98760
C156        C  0.64978273  0.43175045  0.53849968     0.99420
N157        N  0.76122381  0.59243070  0.47204659    -0.05730
N158        N  0.75956945  0.62378588  0.47034755    -0.62040
N159        N  0.78352029  0.51884201  0.45051977    -0.04540
N160        N  0.80005224  0.50229859  0.42940780    -0.62720
N161        N  0.75981505  0.53243225  0.43436062    -0.05240
N162        N  0.75938938  0.52637406  0.40392481    -0.62310
N163        N  0.78229686  0.58333199  0.49440867    -0.04140
N164        N  0.79400591  0.60934655  0.50951676    -0.63000
Mn165      Mn  0.72403452  0.56040736  0.45168868     1.10660
C166        C  0.77968441  0.63448442  0.49364750     0.99980
C167        C  0.78395357  0.50751713  0.40030173     1.00060
N168        N  0.75819661  0.46724176  0.53955733    -0.05250
N169        N  0.75482791  0.43607401  0.54329148    -0.60620
N170        N  0.78280005  0.54119182  0.56093902    -0.04570
N171        N  0.79956488  0.55845182  0.58309181    -0.57350
N172        N  0.75709460  0.52913919  0.57475876    -0.05880
N173        N  0.75506872  0.53740037  0.60442214    -0.60190
N174        N  0.78013351  0.47531230  0.51851704    -0.04860
N175        N  0.79140422  0.44835885  0.50671167    -0.57370
Mn176      Mn  0.72221157  0.49836869  0.55567439     1.20190
Mn177      Mn  0.78538257  0.52944916  0.50606001     1.10090
Cl178      Cl  0.72400176  0.52863123  0.50374047    -0.85340
C179        C  0.77544577  0.42407935  0.52319179     0.96990
C180        C  0.78110031  0.55570714  0.61013966     0.96790
N181        N  0.51886126  0.47804779  0.68983658    -0.05500
N182        N  0.51774629  0.44665447  0.68954113    -0.57620
N183        N  0.53576344  0.55418949  0.66803043    -0.05180
N184        N  0.54724619  0.58131521  0.65516565    -0.59750
N185        N  0.55860239  0.54046873  0.68532425    -0.04780
N186        N  0.58553524  0.55761329  0.68478928    -0.57590
N187        N  0.49384975  0.48998001  0.67464166    -0.04450
N188        N  0.47457588  0.46658200  0.66393304    -0.60100
C189        C  0.48995791  0.43984265  0.67387946     0.96680
C190        C  0.57821224  0.58320204  0.66636736     0.96460
N191        N  0.46467325  0.60236327  0.70944663    -0.05680
N192        N  0.46890612  0.63350111  0.71097859    -0.58200
N193        N  0.43669174  0.52887312  0.69429399    -0.03800
N194        N  0.41530406  0.50735236  0.68358443    -0.59450
N195        N  0.42687765  0.54090465  0.72092547    -0.05710
N196        N  0.39940068  0.52772393  0.72891797    -0.58460
N197        N  0.47668346  0.59146041  0.68331154    -0.03450
N198        N  0.49048643  0.61514774  0.66702293    -0.59540
Mn199      Mn  0.48490272  0.54103441  0.67747004     1.18440
C200        C  0.48515829  0.64090410  0.68472714     0.98760
C201        C  0.39212881  0.50691874  0.70580648     0.99420
N202        N  0.57881715  0.53070784  0.75393796    -0.05730
N203        N  0.60943181  0.53657630  0.74924585    -0.62040
N204        N  0.51878859  0.47731310  0.78184257    -0.04540
N205        N  0.50271299  0.44995422  0.78997862    -0.62720
N206        N  0.53820655  0.47086370  0.75875230    -0.05240
N207        N  0.53753684  0.44030312  0.75233438    -0.62310
N208        N  0.56955023  0.54082252  0.78155221    -0.04140
N209        N  0.59538237  0.55470220  0.79643694    -0.63000
Mn210      Mn  0.54916448  0.50512516  0.72162961     1.10660
C211        C  0.62004511  0.55177958  0.77534257     0.99980
C212        C  0.51543893  0.42689224  0.77126424     1.00060
N213        N  0.44058922  0.54720898  0.79202879    -0.05250
N214        N  0.40947099  0.54109812  0.79299720    -0.60620
N215        N  0.51209540  0.58994614  0.79111139    -0.04570
N216        N  0.53433268  0.61448816  0.79145339    -0.57350
N217        N  0.48502908  0.60193179  0.77994829    -0.05880
N218        N  0.48740093  0.63297773  0.77475263    -0.60190
N219        N  0.45736404  0.52160099  0.79717784    -0.04860
N220        N  0.43602882  0.49622774  0.79764909    -0.57370
Mn221      Mn  0.45407347  0.57348608  0.75056041     1.20190
Mn222      Mn  0.51445314  0.53200527  0.79144376     1.10090
Cl223      Cl  0.50123191  0.53836222  0.73524239    -0.85340
C224        C  0.40551741  0.50926344  0.79550135     0.96990
C225        C  0.51800386  0.64171010  0.78140268     0.96790
N226        N  0.34907176  0.48790292  0.52473917    -0.05500
N227        N  0.35693890  0.47574705  0.55323828    -0.57620
N228        N  0.33068409  0.51337626  0.44874131    -0.05180
N229        N  0.32980763  0.51892366  0.41816378    -0.59750
N230        N  0.35362181  0.53018773  0.46282161    -0.04780
N231        N  0.37090553  0.54601933  0.44120436    -0.57590
N232        N  0.32930782  0.46805587  0.50932649    -0.04450
N233        N  0.32292188  0.44262600  0.52731784    -0.60100
C234        C  0.33986449  0.44766408  0.55481224     0.96680
C235        C  0.35521761  0.53841292  0.41330865     0.96460
N236        N  0.23705075  0.51295352  0.43916886    -0.05680
N237        N  0.22489450  0.52601100  0.41207249    -0.58200
N238        N  0.26267231  0.45118953  0.48940349    -0.03800
N239        N  0.26537175  0.42017383  0.48711525    -0.59450
N240        N  0.23347262  0.45966104  0.49560850    -0.05710
N241        N  0.21498122  0.43250748  0.49705788    -0.58460
N242        N  0.26282410  0.49714526  0.43268023    -0.03450
N243        N  0.26816723  0.49795528  0.40185484    -0.59540
Mn244      Mn  0.29727599  0.48211590  0.46996226     1.18440
C245        C  0.24476237  0.51597059  0.38890500     0.98760
C246        C  0.23602669  0.40802596  0.49207271     0.99420
N247        N  0.33741038  0.58717459  0.49990908    -0.05730
N248        N  0.35191684  0.60342661  0.47707506    -0.62040
N249        N  0.31222202  0.56113258  0.57036836    -0.04540
N250        N  0.30790842  0.55721651  0.60107490    -0.62720
N251        N  0.33820349  0.54701649  0.56186198    -0.05240
N252        N  0.35185773  0.53237220  0.58657675    -0.62310
N253        N  0.31099434  0.60120061  0.50784360    -0.04140
N254        N  0.30750858  0.62781895  0.49057318    -0.63000
Mn255      Mn  0.34697851  0.53834183  0.51275530     1.10660
C256        C  0.33306895  0.62862682  0.47114773     0.99980
C257        C  0.33238987  0.53895859  0.61044983     1.00060
N258        N  0.22763465  0.51898935  0.54969725    -0.05250
N259        N  0.22477199  0.49706738  0.57390538    -0.60620
N260        N  0.23829658  0.59000862  0.50709718    -0.04570
N261        N  0.23954924  0.62048958  0.50011209    -0.57350
N262        N  0.22525492  0.57269232  0.48412863    -0.05880
N263        N  0.21924677  0.59308220  0.45914322    -0.60190
N264        N  0.24036680  0.54546660  0.56224272    -0.04860
N265        N  0.24385116  0.54290412  0.59337092    -0.57370
Mn266      Mn  0.22734585  0.51609285  0.49245196     1.20190
Mn267      Mn  0.27503274  0.57517035  0.53735218     1.10090
Cl268      Cl  0.28612388  0.52764379  0.50331260    -0.85340
C269        C  0.23487282  0.51291456  0.60146448     0.96990
C270        C  0.22816547  0.62329819  0.47033020     0.96790
N271        N  0.83649074  0.52366058  0.97109952    -0.05500
N272        N  0.84192490  0.54123490  0.94531015    -0.57620
N273        N  0.83813491  0.46994511  0.03339205    -0.05180
N274        N  0.84412559  0.44564519  0.05345046    -0.59750
N275        N  0.82240896  0.45966455  0.00787639    -0.04780
N276        N  0.81726578  0.42860651  0.00988848    -0.57590
N277        N  0.85256055  0.53550288  0.99598840    -0.04450
N278        N  0.86924339  0.56166298  0.98735055    -0.60100
C279        C  0.86208807  0.56490833  0.95564824     0.96680
C280        C  0.83040183  0.41999558  0.03842705     0.96460
N281        N  0.78927951  0.51789962  0.09806980    -0.05680
N282        N  0.78118867  0.50504119  0.12562112    -0.58200
N283        N  0.83616553  0.57094250  0.05782443    -0.03800
N284        N  0.85786632  0.59476136  0.05651598    -0.59450
N285        N  0.80923047  0.58140315  0.06830495    -0.05710
N286        N  0.81177630  0.61188919  0.07498410    -0.58460
N287        N  0.81628441  0.50607429  0.08886745    -0.03450
N288        N  0.82657564  0.48449779  0.10967486    -0.59540
Mn289      Mn  0.83809895  0.52068876  0.04434183     1.18440
C290        C  0.80484003  0.48440666  0.13308109     0.98760
C291        C  0.84213959  0.62002767  0.06785730     0.99420
N292        N  0.75444188  0.45789298  0.98168092    -0.05730
N293        N  0.75587109  0.42658637  0.98010535    -0.62040
N294        N  0.73997034  0.53085451  0.95090840    -0.04540
N295        N  0.72822136  0.54615656  0.92457341    -0.62720
N296        N  0.76784474  0.51919509  0.94380105    -0.05240
N297        N  0.77546540  0.52551338  0.91407410    -0.62310
N298        N  0.72834282  0.46639295  0.99595491    -0.04140
N299        N  0.71201107  0.43988241  0.00555950    -0.63000
Mn300      Mn  0.79592669  0.48994928  0.97537604     1.10660
C301        C  0.72960593  0.41516026  0.99485833     0.99980
C302        C  0.75116896  0.54252141  0.90174463     1.00060
N303        N  0.74267262  0.58529814  0.03830514    -0.05250
N304        N  0.74683412  0.61608313  0.04041510    -0.60620
N305        N  0.71321783  0.50868134  0.05909294    -0.04570
N306        N  0.70947787  0.48453933  0.08108777    -0.57350
N307        N  0.71850822  0.53477766  0.07504545    -0.05880
N308        N  0.71334509  0.53095262  0.10538574    -0.60190
N309        N  0.72677494  0.57647820  0.01214048    -0.04860
N310        N  0.72050820  0.60338099  0.99496308    -0.57370
Mn311      Mn  0.76512287  0.55462164  0.06997926     1.20190
Mn312      Mn  0.72380190  0.52033102  0.00394034     1.10090
Cl313      Cl  0.78075562  0.52209143  0.02247595    -0.85340
C314        C  0.73302044  0.62785506  0.01388544     0.96990
C315        C  0.70903136  0.49966976  0.11050407     0.96790
N316        N  0.97737610  0.55815819  0.85487092    -0.05500
N317        N  0.96883588  0.58035542  0.87452434    -0.57620
N318        N  0.97350360  0.48277048  0.83214105    -0.05180
N319        N  0.96784998  0.45236597  0.82657454    -0.59750
N320        N  0.99892492  0.48705315  0.85108730    -0.04780
N321        N  0.01202018  0.45910658  0.85741224    -0.57590
N322        N  0.95437063  0.55227782  0.83355231    -0.04450
N323        N  0.92949037  0.57023380  0.83826068    -0.60100
C324        C  0.93897362  0.58801633  0.86377976     0.96680
C325        C  0.99226449  0.43801948  0.84170028     0.96460
N326        N  0.99263332  0.48732150  0.73707778    -0.05680
N327        N  0.00225538  0.45931580  0.72647727    -0.58200
N328        N  0.94817683  0.55222871  0.76285809    -0.03800
N329        N  0.91914596  0.56292653  0.76397688    -0.59450
N330        N  0.96112420  0.55684865  0.73488710    -0.05710
N331        N  0.93842938  0.56971376  0.71530288    -0.58460
N332        N  0.97069666  0.48201063  0.75895165    -0.03450
N333        N  0.96412343  0.45094926  0.76218786    -0.59540
Mn334      Mn  0.96104733  0.51745472  0.79661505     1.18440
C335        C  0.98373249  0.43673095  0.74217815     0.98760
C336        C  0.91251517  0.57398348  0.73470430     0.99420
N337        N  0.06840552  0.51097529  0.84845262    -0.05730
N338        N  0.07515755  0.48270138  0.86088312    -0.62040
N339        N  0.06753661  0.58955989  0.82911226    -0.04540
N340        N  0.07002289  0.62078738  0.82443057    -0.62720
N341        N  0.04674874  0.58220558  0.85129453    -0.05240
N342        N  0.03394559  0.60860730  0.86119257    -0.62310
N343        N  0.08806697  0.51872817  0.82542743    -0.04140
N344        N  0.10861801  0.49565078  0.82169261    -0.63000
Mn345      Mn  0.02322560  0.53457828  0.85326002     1.10660
C346        C  0.09993529  0.47307822  0.84377696     0.99980
C347        C  0.04893144  0.63238488  0.84435225     1.00060
N348        N  0.03565026  0.58896082  0.73555833    -0.05250
N349        N  0.02569767  0.61771536  0.72523054    -0.60620
N350        N  0.08514358  0.52590044  0.75501407    -0.04570
N351        N  0.11356860  0.51366271  0.75410649    -0.57350
N352        N  0.06617155  0.51782664  0.73065441    -0.05880
N353        N  0.08326479  0.49942147  0.71170811    -0.60190
N354        N  0.06027673  0.59325158  0.75593799    -0.04860
N355        N  0.06806393  0.62384017  0.75863251    -0.57370
Mn356      Mn  0.01369433  0.53783260  0.73147047     1.20190
Mn357      Mn  0.07603738  0.55709378  0.79136306     1.10090
Cl358      Cl  0.01848459  0.53677915  0.79287002    -0.85340
C359        C  0.04674000  0.63930652  0.73974350     0.96990
C360        C  0.11284901  0.49684527  0.72761700     0.96790
N361        N  0.28120824  0.52215275  0.93974377    -0.05500
N362        N  0.29153761  0.50730576  0.91396172    -0.57620
N363        N  0.26296068  0.58939488  0.97744758    -0.05180
N364        N  0.25837524  0.62018450  0.97907847    -0.59750
N365        N  0.28968306  0.58073980  0.99223814    -0.04780
N366        N  0.30372051  0.60703531  0.00533759    -0.57590
N367        N  0.25368145  0.53516886  0.93205179    -0.04450
N368        N  0.24500016  0.53057027  0.90216652    -0.60100
C369        C  0.26838400  0.51334211  0.89047039     0.96680
C370        C  0.28350372  0.63152663  0.99629561     0.96460
N371        N  0.18091726  0.56426574  0.02175187    -0.05680
N372        N  0.16170473  0.58387999  0.03566044    -0.58200
N373        N  0.18531925  0.52452450  0.95364690    -0.03800
N374        N  0.18073662  0.51170859  0.92546389    -0.59450
N375        N  0.16944576  0.50809861  0.97552490    -0.05710
N376        N  0.15367411  0.48351628  0.96244407    -0.58460
N377        N  0.19753792  0.57976051  0.00011294    -0.03450
N378        N  0.19116591  0.61013454  0.99936889    -0.59540
Mn379      Mn  0.22466569  0.55725380  0.96536594     1.18440
C380        C  0.16829391  0.61260955  0.02104119     0.98760
C381        C  0.16129162  0.48611829  0.93133769     0.99420
N382        N  0.30627701  0.52881323  0.04968539    -0.05730
N383        N  0.30699856  0.55185210  0.07202737    -0.62040
N384        N  0.28749292  0.45282881  0.01888496    -0.04540
N385        N  0.28142607  0.42232717  0.01454861    -0.62720
N386        N  0.29482662  0.46816542  0.99222385    -0.05240
N387        N  0.29059123  0.44695814  0.96833417    -0.62310
N388        N  0.30259640  0.50128394  0.06481623    -0.04140
N389        N  0.30546311  0.50405582  0.09573178    -0.63000
Mn390      Mn  0.29654576  0.52534338  0.99342382     1.10660
C391        C  0.30709833  0.53536522  0.10123661     0.99980
C392        C  0.28241801  0.41792986  0.98315132     1.00060
N393        N  0.18984247  0.46187950  0.02873652    -0.05250
N394        N  0.17149961  0.44128278  0.01271986    -0.60620
N395        N  0.23100718  0.50403156  0.08336617    -0.04570
N396        N  0.23811425  0.51195091  0.11301341    -0.57350
N397        N  0.20447767  0.51783337  0.07328337    -0.05880
N398        N  0.19361813  0.53599813  0.09541667    -0.60190
N399        N  0.21683923  0.44866858  0.03833909    -0.04860
N400        N  0.21709731  0.41865473  0.02961455    -0.57370
Mn401      Mn  0.18419471  0.51285689  0.02575394     1.20190
Mn402      Mn  0.25956201  0.47616513  0.05194311     1.10090
Cl403      Cl  0.24123659  0.51749881  0.00868631    -0.85340
C404        C  0.18900361  0.41483821  0.01348813     0.96990
C405        C  0.21492503  0.53235103  0.12008670     0.96790
N406        N  0.96013215  0.52387870  0.15328360    -0.05500
N407        N  0.93445224  0.50559010  0.14618172    -0.57620
N408        N  0.01845735  0.58010355  0.17246234    -0.05180
N409        N  0.03599782  0.60676166  0.17005384    -0.59750
N410        N  0.02727097  0.55944732  0.15161493    -0.04780
N411        N  0.05095550  0.57138235  0.13457049    -0.57590
N412        N  0.95191726  0.54750683  0.17105924    -0.04450
N413        N  0.92088328  0.54693187  0.17503054    -0.60100
C414        C  0.91033526  0.52053334  0.16014621     0.96680
C415        C  0.05628602  0.60106810  0.14612203     0.96460
N416        N  0.01836215  0.57404943  0.27128271    -0.05680
N417        N  0.02275453  0.59813467  0.29201738    -0.58200
N418        N  0.94855708  0.54739552  0.24403143    -0.03800
N419        N  0.91695633  0.54741900  0.23990242    -0.59450
N420        N  0.95678579  0.52673154  0.26707458    -0.05710
N421        N  0.93027169  0.51161044  0.27791757    -0.58460
N422        N  0.01285901  0.58707734  0.24289080    -0.03450
N423        N  0.01467646  0.61838383  0.24295396    -0.59540
Mn424      Mn  0.98308259  0.56626647  0.20756431     1.18440
C425        C  0.02096865  0.62574932  0.27321269     0.98760
C426        C  0.90539835  0.52521254  0.26078883     0.99420
N427        N  0.06058620  0.49750332  0.15622300    -0.05730
N428        N  0.08555530  0.51328186  0.14408973    -0.62040
N429        N  0.00533195  0.44325886  0.18366645    -0.04540
N430        N  0.98707343  0.41689748  0.18652615    -0.62720
N431        N  0.99426637  0.46162503  0.16036401    -0.05240
N432        N  0.96823576  0.44867584  0.14719443    -0.62310
N433        N  0.07035884  0.47793789  0.17902822    -0.04140
N434        N  0.10166474  0.47863102  0.18219809    -0.63000
Mn435      Mn  0.01040364  0.51045724  0.15357143     1.10660
C436        C  0.11079444  0.50088307  0.16073811     0.99980
C437        C  0.96368727  0.42083922  0.16363624     1.00060
N438        N  0.00044528  0.46195854  0.27638093    -0.05250
N439        N  0.98401591  0.43960489  0.29380123    -0.60620
N440        N  0.07427610  0.48732255  0.25118471    -0.04570
N441        N  0.10546314  0.48830356  0.24686374    -0.57350
N442        N  0.06587289  0.51042054  0.27017736    -0.05880
N443        N  0.09246536  0.52841285  0.27751044    -0.60190
N444        N  0.01327936  0.44683709  0.25309170    -0.04860
N445        N  0.00643501  0.41631859  0.25315563    -0.57370
Mn446      Mn  0.01048722  0.51812124  0.27468085     1.20190
Mn447      Mn  0.04114901  0.46329611  0.21705116     1.10090
Cl448      Cl  0.01123517  0.51459123  0.21397678    -0.85340
C449        C  0.98822794  0.41116145  0.27799624     0.96990
C450        C  0.11725200  0.51372168  0.26291310     0.96790
N451        N  0.93731743  0.24186736  0.99938496    -0.05500
N452        N  0.91361643  0.23173473  0.01871223    -0.57620
N453        N  0.96492513  0.24537940  0.92833454    -0.05180
N454        N  0.96366588  0.24516791  0.89729972    -0.59750
N455        N  0.99023758  0.23130292  0.94053926    -0.04780
N456        N  0.00911420  0.22450805  0.91602580    -0.57590
N457        N  0.92520257  0.26332111  0.97927651    -0.04450
N458        N  0.89458489  0.26772130  0.98330726    -0.60100
C459        C  0.88706782  0.24843421  0.00791450     0.96680
C460        C  0.99116300  0.23302281  0.88884483     0.96460
N461        N  0.00477975  0.33824034  0.92453209    -0.05680
N462        N  0.02282177  0.34850955  0.90085391    -0.58200
N463        N  0.93662440  0.33332535  0.96309127    -0.03800
N464        N  0.90713174  0.33375636  0.97290189    -0.59450
N465        N  0.95532014  0.35486548  0.97743302    -0.05710
N466        N  0.93848766  0.36942947  0.99894225    -0.58460
N467        N  0.98484116  0.31526621  0.91469328    -0.03450
N468        N  0.98873927  0.30950237  0.88440844    -0.59540
Mn469      Mn  0.95283216  0.28968188  0.94615467     1.18440
C470        C  0.01254740  0.33025137  0.87587456     0.98760
C471        C  0.90854308  0.35570798  0.99542940     0.99420
N472        N  0.04962430  0.23365783  0.99316595    -0.05730
N473        N  0.07087168  0.22479793  0.97156352    -0.62040
N474        N  0.01703217  0.26748324  0.06084663    -0.04540
N475        N  0.01704986  0.27324146  0.09138693    -0.62720
N476        N  0.99697616  0.24398205  0.05244234    -0.05240
N477        N  0.98189248  0.23364840  0.07899359    -0.62310
N478        N  0.06532110  0.25143845  0.01425548    -0.04140
N479        N  0.09640764  0.25239692  0.00989591    -0.63000
Mn480      Mn  0.99347022  0.23437616  0.99662200     1.10660
C481        C  0.10038666  0.23659447  0.98303356     0.99980
C482        C  0.99529777  0.25244656  0.10315986     1.00060
N483        N  0.01169852  0.35960753  0.02616179    -0.05250
N484        N  0.99326288  0.37797720  0.04256773    -0.60620
N485        N  0.07062864  0.31993672  0.99337872    -0.04570
N486        N  0.09986951  0.31282757  0.98726469    -0.57350
N487        N  0.06037128  0.34277661  0.97417267    -0.05880
N488        N  0.08409120  0.35287131  0.95543919    -0.60190
N489        N  0.02514053  0.33825995  0.04531816    -0.04860
N490        N  0.01666906  0.34194055  0.07491128    -0.57370
Mn491      Mn  0.00830014  0.35151681  0.97490837     1.20190
Mn492      Mn  0.04454026  0.29462814  0.02885496     1.10090
Cl493      Cl  0.99940710  0.29237510  0.98717201    -0.85340
C494        C  0.99668498  0.36655030  0.07292991     0.96990
C495        C  0.10884050  0.33339358  0.96427666     0.96790
N496        N  0.93136781  0.71151839  0.97456812    -0.05500
N497        N  0.91523385  0.69629813  0.99679705    -0.57620
N498        N  0.96569967  0.74520720  0.91078425    -0.05180
N499        N  0.96920975  0.74955665  0.87966292    -0.59750
N500        N  0.97647079  0.71722174  0.92019156    -0.04780
N501        N  0.98707728  0.70170379  0.89602329    -0.57590
N502        N  0.91896441  0.73966511  0.96764263    -0.04450
N503        N  0.89373990  0.74381179  0.98545668    -0.60100
C504        C  0.89240846  0.71671131  0.00351832     0.96680
C505        C  0.98217057  0.72192764  0.87097830     0.96460
N506        N  0.00566710  0.82457623  0.94384307    -0.05680
N507        N  0.02856928  0.82796998  0.92160655    -0.58200
N508        N  0.93231598  0.81155624  0.97737894    -0.03800
N509        N  0.90146578  0.81144142  0.98147620    -0.59450
N510        N  0.94916893  0.82161952  0.00246153    -0.05710
N511        N  0.92821562  0.82603083  0.02581398    -0.58460
N512        N  0.97856189  0.81659097  0.92844604    -0.03450
N513        N  0.98144644  0.81758379  0.89761363    -0.59540
Mn514      Mn  0.94822290  0.77866770  0.94531351     1.18440
C515        C  0.01237885  0.82377362  0.89239373     0.98760
C516        C  0.89827769  0.82004657  0.01148014     0.99420
N517        N  0.03142959  0.69839474  0.96682611    -0.05730
N518        N  0.04969236  0.68052560  0.94971626    -0.62040
N519        N  0.99398506  0.71112051  0.03949818    -0.04540
N520        N  0.99964012  0.70016795  0.06832193    -0.62720
N521        N  0.98578917  0.68794127  0.02023046    -0.05240
N522        N  0.99024338  0.65998019  0.03519222    -0.62310
N523        N  0.04883470  0.71490304  0.98752660    -0.04140
N524        N  0.07932667  0.71008064  0.98407193    -0.63000
Mn525      Mn  0.98081878  0.70208106  0.96943689     1.10660
C526        C  0.07983774  0.68829526  0.96095801     0.99980
C527        C  0.99902919  0.66848037  0.06562229     1.00060
N528        N  0.00475781  0.80313941  0.05507957    -0.05250
N529        N  0.99601044  0.81483651  0.08315836    -0.60620
N530        N  0.06638594  0.77816198  0.01158116    -0.04570
N531        N  0.09710171  0.77223293  0.01370647    -0.57350
N532        N  0.06064005  0.80749688  0.00177964    -0.05880
N533        N  0.08922195  0.82257693  0.99680701    -0.60190
N534        N  0.01531551  0.77425371  0.06058248    -0.04860
N535        N  0.01472453  0.76565860  0.09088121    -0.57370
Mn536      Mn  0.00541847  0.81775725  0.00073296     1.20190
Mn537      Mn  0.03081565  0.74417792  0.02452655     1.10090
Cl538      Cl  0.99162633  0.76129716  0.98468938    -0.85340
C539        C  0.00257358  0.79058059  0.10529888     0.96990
C540        C  0.11165728  0.79956385  0.00447660     0.96790
N541        N  0.56800845  0.74518183  0.99748096    -0.05500
N542        N  0.59012459  0.72400923  0.98998637    -0.57620
N543        N  0.54071933  0.76855406  0.06428229    -0.05180
N544        N  0.54173065  0.76933555  0.09542406    -0.59750
N545        N  0.51794104  0.74848776  0.05341085    -0.04780
N546        N  0.50218972  0.73584287  0.07841689    -0.57590
N547        N  0.58341635  0.77090956  0.00815877    -0.04450
N548        N  0.61445123  0.76900435  0.00721180    -0.60100
C549        C  0.61907698  0.74018942  0.99601929     0.96680
C550        C  0.51803689  0.74928612  0.10443229     0.96460
N551        N  0.53027093  0.86321095  0.05656619    -0.05680
N552        N  0.51498952  0.87696140  0.07930704    -0.58200
N553        N  0.58936669  0.84169850  0.00835982    -0.03800
N554        N  0.61333867  0.83552818  0.98973426    -0.59450
N555        N  0.57296728  0.86586424  0.99665433    -0.05710
N556        N  0.58558463  0.87638331  0.96973571    -0.58460
N557        N  0.54758997  0.84001362  0.06837973    -0.03450
N558        N  0.54476920  0.83715311  0.09957363    -0.59540
Mn559      Mn  0.56572214  0.80526851  0.03739483     1.18440
C560        C  0.52460797  0.86054300  0.10583868     0.98760
C561        C  0.61041984  0.85706382  0.96558823     0.99420
N562        N  0.45603254  0.75148667  0.99991017    -0.05730
N563        N  0.43057417  0.73714923  0.01439881    -0.62040
N564        N  0.49408025  0.77916348  0.93137359    -0.04540
N565        N  0.49852794  0.78428891  0.90077958    -0.62720
N566        N  0.51065993  0.75476940  0.94295022    -0.05240
N567        N  0.52776348  0.74348161  0.91915672    -0.62310
N568        N  0.44510201  0.77547919  0.98238330    -0.04140
N569        N  0.41397753  0.77782578  0.98368098    -0.63000
Mn570      Mn  0.51230803  0.74657231  0.99858061     1.10660
C571        C  0.40429389  0.75440194  0.00345903     0.99980
C572        C  0.51936512  0.76222010  0.89289564     1.00060
N573        N  0.51420478  0.87224767  0.95553997    -0.05250
N574        N  0.52696066  0.89538304  0.93837749    -0.60620
N575        N  0.45176079  0.84505903  0.99479634    -0.04570
N576        N  0.42378062  0.83981452  0.00806716    -0.57350
N577        N  0.47012321  0.86428794  0.01257340    -0.05880
N578        N  0.45482232  0.87241720  0.03818286    -0.60190
N579        N  0.49694576  0.85254378  0.93766095    -0.04860
N580        N  0.49677595  0.86234133  0.90735572    -0.57370
Mn581      Mn  0.52172348  0.86785580  0.00579099     1.20190
Mn582      Mn  0.47158147  0.81310628  0.96044716     1.10090
Cl583      Cl  0.51747201  0.80741502  0.00057119    -0.85340
C584        C  0.51619661  0.88891281  0.90869365     0.96990
C585        C  0.42606388  0.85654273  0.03523456     0.96790
N586        N  0.52487048  0.00899588  0.80703753    -0.05500
N587        N  0.53846026  0.98252371  0.81599228    -0.57620
N588        N  0.47175447  0.06766095  0.80895555    -0.05180
N589        N  0.44844649  0.08774958  0.81249760    -0.59750
N590        N  0.46036834  0.04172141  0.79517522    -0.04780
N591        N  0.42930000  0.04338464  0.78941574    -0.57590
N592        N  0.53590680  0.03309955  0.82403732    -0.04450
N593        N  0.55651297  0.02287969  0.84640069    -0.60100
C594        C  0.55764930  0.99089735  0.84090068     0.96680
C595        C  0.42218305  0.07244648  0.79958561     0.96460
N596        N  0.52010940  0.13640020  0.75947216    -0.05680
N597        N  0.50624440  0.16322518  0.75098708    -0.58200
N598        N  0.57207329  0.09614425  0.80501516    -0.03800
N599        N  0.59475118  0.09563959  0.82761710    -0.59450
N600        N  0.58396973  0.10598223  0.77776688    -0.05710
N601        N  0.61517033  0.11212471  0.78110889    -0.58460
N602        N  0.50828567  0.12521561  0.78635293    -0.03450
N603        N  0.48549966  0.14335524  0.79589557    -0.59540
Mn604      Mn  0.52217303  0.08085522  0.80829364     1.18440
C605        C  0.48418746  0.16701918  0.77358573     0.98760
C606        C  0.62144219  0.10615540  0.81246676     0.99420
N607        N  0.45504588  0.01450123  0.73045405    -0.05730
N608        N  0.42398698  0.00969000  0.73384166    -0.62040
N609        N  0.52666331  0.98696372  0.71450113    -0.04540
N610        N  0.53867674  0.95966839  0.70358494    -0.62720
N611        N  0.51715561  0.98080747  0.74359509    -0.05240
N612        N  0.52214556  0.95134184  0.75320784    -0.62310
N613        N  0.46155386  0.02987648  0.70360641    -0.04140
N614        N  0.43349289  0.03705316  0.68862531    -0.63000
Mn615      Mn  0.48945720  0.01119998  0.76966531     1.10660
C616        C  0.41013108  0.02364252  0.70806170     0.99980
C617        C  0.53553121  0.93754170  0.72870980     1.00060
N618        N  0.58336494  0.07927056  0.70977862    -0.05250
N619        N  0.61421951  0.08181728  0.71502724    -0.60620
N620        N  0.50479499  0.09574112  0.68611318    -0.04570
N621        N  0.47970810  0.11584532  0.68412741    -0.57350
N622        N  0.53084021  0.11382204  0.68878351    -0.05880
N623        N  0.52544941  0.14396230  0.68318487    -0.60190
N624        N  0.57353969  0.05070562  0.70005014    -0.04860
N625        N  0.59976433  0.03236975  0.70076842    -0.57370
Mn626      Mn  0.55473698  0.10928726  0.73383653     1.20190
Mn627      Mn  0.51648892  0.04050493  0.69745619     1.10090
Cl628      Cl  0.52105455  0.06005976  0.75208511    -0.85340
C629        C  0.62515179  0.05304782  0.70951897     0.96990
C630        C  0.49369566  0.14661732  0.68170274     0.96790
N631        N  0.49063043  0.18894908  0.93149547    -0.05500
N632        N  0.47468813  0.18229523  0.90436208    -0.57620
N633        N  0.54610615  0.20704510  0.99059550    -0.05180
N634        N  0.57542181  0.20022788  0.99956403    -0.59750
N635        N  0.52582019  0.18366578  0.99795857    -0.04780
N636        N  0.54128370  0.15972231  0.01154278    -0.57590
N637        N  0.51581858  0.20737483  0.92533044    -0.04450
N638        N  0.51897869  0.21204532  0.89486030    -0.60100
C639        C  0.49325010  0.19721544  0.88194648     0.96680
C640        C  0.57241859  0.17035474  0.01167558     0.96460
N641        N  0.54468714  0.30179515  0.99641803    -0.05680
N642        N  0.56899502  0.31700648  0.01285642    -0.58200
N643        N  0.52047742  0.28022144  0.92118143    -0.03800
N644        N  0.52209411  0.27704022  0.89001651    -0.59450
N645        N  0.50035298  0.30264063  0.92821502    -0.05710
N646        N  0.48671056  0.31387736  0.90081314    -0.58460
N647        N  0.55654344  0.27569000  0.98547592    -0.03450
N648        N  0.58665056  0.27177705  0.99370561    -0.59540
Mn649      Mn  0.53482695  0.24278834  0.95584506     1.18440
C650        C  0.59504050  0.29701291  0.01087411     0.98760
C651        C  0.50111058  0.29771999  0.87696993     0.99420
N652        N  0.46264036  0.18675121  0.03153772    -0.05730
N653        N  0.47730913  0.17322120  0.05652794    -0.62040
N654        N  0.40950716  0.21374261  0.97581280    -0.04540
N655        N  0.38304977  0.21707907  0.95815449    -0.62720
N656        N  0.42683091  0.19091531  0.96502076    -0.05240
N657        N  0.41275376  0.17829592  0.93951336    -0.62310
N658        N  0.44401890  0.20927209  0.04097722    -0.04140
N659        N  0.44453683  0.21096634  0.07223881    -0.63000
Mn660      Mn  0.47604554  0.18544305  0.98145419     1.10660
C661        C  0.46545276  0.18868715  0.08148761     0.99980
C662        C  0.38571653  0.19518393  0.93536484     1.00060
N663        N  0.43375419  0.30780388  0.96733603    -0.05250
N664        N  0.41411452  0.32528935  0.94806229    -0.60620
N665        N  0.45069049  0.28201949  0.04164140    -0.04570
N666        N  0.44742664  0.27706609  0.07228167    -0.57350
N667        N  0.47625040  0.30042193  0.03547249    -0.05880
N668        N  0.49207373  0.30626502  0.06331779    -0.60190
N669        N  0.41619646  0.28385407  0.97895669    -0.04860
N670        N  0.38649537  0.28357287  0.96847118    -0.57370
Mn671      Mn  0.48906455  0.30667168  0.98205610     1.20190
Mn672      Mn  0.42955988  0.24746390  0.00961433     1.10090
Cl673      Cl  0.48232699  0.24594424  0.98222362    -0.85340
C674        C  0.38463535  0.30881995  0.94907829     0.96990
C675        C  0.47298037  0.29167025  0.08607889     0.96790
N676        N  0.45513835  0.97336228  0.19160690    -0.05500
N677        N  0.46152097  0.95222777  0.17003144    -0.57620
N678        N  0.41314564  0.01797515  0.23324993    -0.05180
N679        N  0.38359185  0.01216648  0.22244127    -0.59750
N680        N  0.42738737  0.03941217  0.21437688    -0.04780
N681        N  0.40600077  0.05222631  0.19484985    -0.57590
N682        N  0.44495382  0.95851044  0.21740400    -0.04450
N683        N  0.44411795  0.92722344  0.21412050    -0.60100
C684        C  0.45416591  0.92368290  0.18431097     0.96680
C685        C  0.38039972  0.03203167  0.19688082     0.96460
N686        N  0.44996712  0.02957594  0.30367095    -0.05680
N687        N  0.42852377  0.05202192  0.29410084    -0.58200
N688        N  0.46983237  0.95084549  0.28556871    -0.03800
N689        N  0.46909680  0.92016767  0.27949566    -0.59450
N690        N  0.49790748  0.96134254  0.29699130    -0.05710
N691        N  0.51774053  0.93632668  0.29723462    -0.58460
N692        N  0.43334787  0.00284572  0.30702280    -0.03450
N693        N  0.40240901  0.00748374  0.30839364    -0.59540
Mn694      Mn  0.44014750  0.98263655  0.26085485     1.18440
C695        C  0.39808803  0.03735555  0.29747843     0.98760
C696        C  0.49874951  0.91050018  0.28678381     0.99420
N697        N  0.48818467  0.07389908  0.18962748    -0.05730
N698        N  0.47356051  0.09964692  0.17881774    -0.62040
N699        N  0.54444891  0.01620258  0.18881423    -0.04540
N700        N  0.56877396  0.00123793  0.17703187    -0.62720
N701        N  0.51747417  0.00860059  0.17314284    -0.05240
N702        N  0.52284097  0.98814105  0.15038106    -0.62310
N703        N  0.51665169  0.08176440  0.20155301    -0.04140
N704        N  0.52245780  0.11286685  0.19919056    -0.63000
Mn705      Mn  0.47106282  0.02413752  0.19069311     1.10660
C706        C  0.49514477  0.12373789  0.18561459     0.99980
C707        C  0.55492627  0.98364625  0.15316088     1.00060
N708        N  0.55955461  0.00724097  0.28764425    -0.05250
N709        N  0.58321120  0.99119806  0.30273243    -0.60620
N710        N  0.53902306  0.08058135  0.26917443    -0.04570
N711        N  0.54068902  0.11159528  0.26273741    -0.57350
N712        N  0.51672905  0.07343034  0.29012517    -0.05880
N713        N  0.50109453  0.10038522  0.29593855    -0.60190
N714        N  0.56984720  0.01693820  0.25958224    -0.04860
N715        N  0.59947065  0.00872567  0.25482909    -0.57370
Mn716      Mn  0.50624239  0.01844704  0.29850682     1.20190
Mn717      Mn  0.54363612  0.04834568  0.22957059     1.10090
Cl718      Cl  0.49129603  0.01758971  0.24472284    -0.85340
C719        C  0.60786611  0.99231947  0.28142137     0.96990
C720        C  0.51697549  0.12434907  0.27875286     0.96790
N721        N  0.33758238  0.05238977  0.04484980    -0.05500
N722        N  0.33395063  0.04144127  0.07417072    -0.57620
N723        N  0.35037596  0.08043333  0.96795316    -0.05180
N724        N  0.35046940  0.09177687  0.93805411    -0.59750
N725        N  0.33110774  0.09764363  0.98463639    -0.04780
N726        N  0.31913654  0.12097997  0.96668963    -0.57590
N727        N  0.35944860  0.03643741  0.03063404    -0.04450
N728        N  0.37164797  0.01475134  0.05032442    -0.60100
C729        C  0.35461369  0.01750971  0.07670079     0.96680
C730        C  0.33056309  0.11676479  0.93755914     0.96460
N731        N  0.32972022  0.00469618  0.91733143    -0.05680
N732        N  0.32814425  0.01205390  0.88647939    -0.58200
N733        N  0.35421245  0.97720664  0.99046527    -0.03800
N734        N  0.36706603  0.96170132  0.01522400    -0.59450
N735        N  0.33059965  0.95973299  0.97756905    -0.05710
N736        N  0.32687769  0.93225414  0.99329684    -0.58460
N737        N  0.35430146  0.01974879  0.93097362    -0.03450
N738        N  0.37055891  0.03686581  0.91019172    -0.59540
Mn739      Mn  0.35649139  0.02894480  0.98035291     1.18440
C740        C  0.35381251  0.03239808  0.88278406     0.98760
C741        C  0.34935945  0.93406084  0.01698059     0.99420
N742        N  0.26055781  0.09782548  0.99585921    -0.05730
N743        N  0.25988652  0.12894160  0.99401125    -0.62040
N744        N  0.24110522  0.03519997  0.04306666    -0.04540
N745        N  0.22588293  0.02638618  0.07004955    -0.62720
N746        N  0.26624439  0.05354499  0.05152432    -0.05240
N747        N  0.26840028  0.05809170  0.08242615    -0.62310
N748        N  0.23548209  0.08404460  0.98142160    -0.04140
N749        N  0.21723809  0.10739229  0.96829297    -0.63000
Mn750      Mn  0.29968780  0.07556479  0.01956994     1.10660
C751        C  0.23327067  0.13562279  0.97701250     0.99980
C752        C  0.24366456  0.04124003  0.09445550     1.00060
N753        N  0.25880938  0.95834463  0.97547367    -0.05250
N754        N  0.26010127  0.92745242  0.98055099    -0.60620
N755        N  0.23656586  0.02368912  0.93030074    -0.04570
N756        N  0.22577851  0.04067757  0.90454584    -0.57350
N757        N  0.25691378  0.00290923  0.91985272    -0.05880
N758        N  0.25933374  0.00405339  0.88883606    -0.60190
N759        N  0.23740685  0.97183103  0.99297848    -0.04860
N760        N  0.22394596  0.94845601  0.01145697    -0.57370
Mn761      Mn  0.29377180  0.98099053  0.94702074     1.20190
Mn762      Mn  0.23428051  0.02819335  0.98685570     1.10090
Cl763      Cl  0.29512684  0.02813883  0.98363196    -0.85340
C764        C  0.23891656  0.92082808  0.00296107     0.96990
C765        C  0.24038914  0.02741182  0.87882575     0.96790
N766        N  0.79407572  0.96464008  0.00956513    -0.05500
N767        N  0.79036107  0.94029492  0.03092471    -0.57620
N768        N  0.80200904  0.00874996  0.94570342    -0.05180
N769        N  0.80868965  0.01490312  0.91593470    -0.59750
N770        N  0.79662203  0.03454622  0.96118368    -0.04780
N771        N  0.79241990  0.05824278  0.93885949    -0.57590
N772        N  0.79034178  0.95238068  0.98084098    -0.04450
N773        N  0.78744760  0.92111989  0.98197967    -0.60100
C774        C  0.78645837  0.91306315  0.01299022     0.96680
C775        C  0.80044563  0.04498298  0.90993776     0.96460
N776        N  0.69655852  0.01001536  0.92762529    -0.05680
N777        N  0.68153255  0.03108261  0.90938968    -0.58200
N778        N  0.72241291  0.94050946  0.94606132    -0.03800
N779        N  0.72219921  0.91774944  0.92454271    -0.59450
N780        N  0.69320716  0.94442704  0.95652343    -0.05710
N781        N  0.67289839  0.92407125  0.94239992    -0.58460
N782        N  0.72624463  0.00635130  0.91830851    -0.03450
N783        N  0.73124804  0.02452002  0.89277914    -0.59540
Mn784      Mn  0.76044485  0.97710391  0.94751584     1.18440
C785        C  0.70365119  0.04016617  0.88819372     0.98760
C786        C  0.69128851  0.90767464  0.92267884     0.99420
N787        N  0.77070228  0.07162241  0.02427682    -0.05730
N788        N  0.78258540  0.10150473  0.01921826    -0.62040
N789        N  0.74213505  0.00909845  0.07328720    -0.04540
N790        N  0.73505559  0.00145952  0.10273022    -0.62720
N791        N  0.77279372  0.00659024  0.06783875    -0.05240
N792        N  0.78763469  0.99687767  0.09514684    -0.62310
N793        N  0.74199110  0.07316081  0.03639044    -0.04140
N794        N  0.73397656  0.10318209  0.04023955    -0.63000
Mn795      Mn  0.78689386  0.02029101  0.01584592     1.10660
C796        C  0.75917835  0.12103734  0.02969886     0.99980
C797        C  0.76313130  0.99364659  0.11660769     1.00060
N798        N  0.66360204  0.97446566  0.02021579    -0.05250
N799        N  0.64029515  0.95435609  0.02992565    -0.60620
N800        N  0.67808323  0.05291664  0.00866543    -0.04570
N801        N  0.67539761  0.08389650  0.00750729    -0.57350
N802        N  0.66582422  0.03971450  0.98287233    -0.05880
N803        N  0.65398224  0.06201960  0.96334983    -0.60190
N804        N  0.67713567  0.98908847  0.04494531    -0.04860
N805        N  0.66439436  0.97878434  0.07165763    -0.57370
Mn806      Mn  0.67831895  0.99112670  0.97185703     1.20190
Mn807      Mn  0.70956696  0.03071242  0.04113950     1.10090
Cl808      Cl  0.73383782  0.00434320  0.99459081    -0.85340
C809        C  0.64174458  0.95691222  0.06236364     0.96990
C810        C  0.66085662  0.08953237  0.97912631     0.96790
N811        N  0.97119752  0.84937380  0.52536838    -0.05500
N812        N  0.94415080  0.85907069  0.53624595    -0.57620
N813        N  0.00933390  0.86840373  0.45596466    -0.05180
N814        N  0.01770019  0.87666659  0.42656443    -0.59750
N815        N  0.98315625  0.85016095  0.45467750    -0.04780
N816        N  0.97214096  0.84698107  0.42535106    -0.57590
N817        N  0.99365529  0.87188817  0.52816955    -0.04450
N818        N  0.98200542  0.89735989  0.54083158    -0.60100
C819        C  0.95020140  0.89015039  0.54302652     0.96680
C820        C  0.99387389  0.86301319  0.40801613     0.96460
N821        N  0.09968441  0.84137367  0.48393602    -0.05680
N822        N  0.11777661  0.83489465  0.45955714    -0.58200
N823        N  0.06338932  0.87056290  0.54755938    -0.03800
N824        N  0.05291206  0.88455193  0.57293834    -0.59450
N825        N  0.08046475  0.84592914  0.55648076    -0.05710
N826        N  0.08175010  0.84266221  0.58794642    -0.58460
N827        N  0.08027084  0.86448575  0.47560901    -0.03450
N828        N  0.08453953  0.87390220  0.44572668    -0.59540
Mn829      Mn  0.03721432  0.87054058  0.50152488     1.18440
C830        C  0.10773550  0.85495603  0.43571046     0.98760
C831        C  0.06450530  0.86696873  0.59798470     0.99420
N832        N  0.97925480  0.77759883  0.45093516    -0.05730
N833        N  0.97014721  0.78186107  0.42057937    -0.62040
N834        N  0.97029787  0.75053995  0.52177397    -0.04540
N835        N  0.94426857  0.73074904  0.52507727    -0.62720
N836        N  0.96057778  0.77983603  0.52446567    -0.05240
N837        N  0.93036578  0.78086850  0.53218462    -0.62310
N838        N  0.00104484  0.75524669  0.45363926    -0.04140
N839        N  0.00764657  0.74490812  0.42456812    -0.63000
Mn840      Mn  0.97321399  0.81392424  0.48928461     1.10660
C841        C  0.98767910  0.76162733  0.40399098     0.99980
C842        C  0.91956198  0.75062401  0.53251501     1.00060
N843        N  0.07016165  0.77258600  0.55992305    -0.05250
N844        N  0.07622880  0.77691980  0.59060993    -0.60620
N845        N  0.07614843  0.74733424  0.48356653    -0.04570
N846        N  0.09448990  0.72951465  0.46495914    -0.57350
N847        N  0.09414237  0.77212910  0.49225780    -0.05880
N848        N  0.12219468  0.77312174  0.47967985    -0.60190
N849        N  0.04475195  0.75302709  0.55530440    -0.04860
N850        N  0.03238185  0.74558375  0.58387878    -0.57370
Mn851      Mn  0.08701983  0.80775981  0.52373368     1.20190
Mn852      Mn  0.02335498  0.74808207  0.50351163     1.10090
Cl853      Cl  0.03033973  0.80976636  0.50432175    -0.85340
C854        C  0.05286967  0.76040249  0.60578355     0.96990
C855        C  0.12341628  0.74709819  0.46266255     0.96790
N856        N  0.83921314  0.99047059  0.51956341    -0.05500
N857        N  0.84665054  0.96212025  0.51031612    -0.57620
N858        N  0.84201438  0.06073756  0.55986630    -0.05180
N859        N  0.84698312  0.08264469  0.58236597    -0.59750
N860        N  0.82910798  0.03464497  0.57258784    -0.04780
N861        N  0.82504764  0.03774753  0.60283169    -0.57590
N862        N  0.85679280  0.01304211  0.50577500    -0.04450
N863        N  0.87732357  0.00031431  0.48684332    -0.60100
C864        C  0.87026609  0.96851889  0.48977771     0.96680
C865        C  0.83541591  0.06740337  0.60903570     0.96460
N866        N  0.79621351  0.11670529  0.49091476    -0.05680
N867        N  0.78372658  0.14231423  0.50289276    -0.58200
N868        N  0.83894353  0.06094822  0.45495284    -0.03800
N869        N  0.85716094  0.04280621  0.43806893    -0.59450
N870        N  0.81218247  0.06713530  0.43877112    -0.05710
N871        N  0.81202704  0.05361474  0.41050453    -0.58460
N872        N  0.82201383  0.10873546  0.50774186    -0.03450
N873        N  0.82698833  0.12813846  0.53166056    -0.59540
Mn874      Mn  0.84191059  0.06229507  0.50698881     1.18440
C875        C  0.80269698  0.14868156  0.52876821     0.98760
C876        C  0.84010226  0.03841048  0.41057532     0.99420
N877        N  0.76088354  0.01132846  0.57790445    -0.05730
N878        N  0.76399044  0.01292049  0.60916269    -0.62040
N879        N  0.74263289  0.97075266  0.51264446    -0.04540
N880        N  0.72965337  0.94258774  0.50307345    -0.62720
N881        N  0.77132187  0.96552617  0.52528045    -0.05240
N882        N  0.77859910  0.93529531  0.52516064    -0.62310
N883        N  0.73454601  0.02491067  0.56683647    -0.04140
N884        N  0.71997850  0.03765718  0.59173667    -0.63000
Mn885      Mn  0.80052829  0.99988538  0.54865965     1.10660
C886        C  0.73905984  0.02957047  0.61821745     0.99980
C887        C  0.75305846  0.92093589  0.51115767     1.00060
N888        N  0.74087294  0.04642349  0.43964819    -0.05250
N889        N  0.74433163  0.04242049  0.40928805    -0.60620
N890        N  0.71634984  0.07942224  0.50969907    -0.04570
N891        N  0.70691367  0.10206251  0.52979001    -0.57350
N892        N  0.72662382  0.09452512  0.48398916    -0.05880
N893        N  0.72188789  0.12518529  0.48423031    -0.60190
N894        N  0.72784938  0.02113213  0.45406377    -0.04860
N895        N  0.72439743  0.99800501  0.43188956    -0.57370
Mn896      Mn  0.76917909  0.08166201  0.46261194     1.20190
Mn897      Mn  0.72691484  0.02364846  0.51109952     1.10090
Cl898      Cl  0.78434786  0.04155865  0.50738171    -0.85340
C899        C  0.73480116  0.01239253  0.40359642     0.96990
C900        C  0.71024990  0.13083925  0.51269033     0.96790
N901        N  0.16822199  0.95872534  0.48557654    -0.05500
N902        N  0.15457308  0.95135072  0.45769697    -0.57620
N903        N  0.20007366  0.96220568  0.56149035    -0.05180
N904        N  0.20015416  0.94837829  0.59015443    -0.59750
N905        N  0.17401322  0.97836987  0.55586131    -0.04780
N906        N  0.15558849  0.97653188  0.58071026    -0.57590
N907        N  0.19260636  0.94002182  0.49222658    -0.04450
N908        N  0.19579659  0.91967962  0.46906396    -0.60100
C909        C  0.17240833  0.92721442  0.44757646     0.96680
C910        C  0.17213938  0.95763533  0.60157403     0.96460
N911        N  0.28902934  0.00183801  0.54162698    -0.05680
N912        N  0.29734350  0.01990074  0.56681481    -0.58200
N913        N  0.26299192  0.94458605  0.48816183    -0.03800
N914        N  0.26249587  0.91495192  0.47901224    -0.59450
N915        N  0.28325611  0.96323141  0.47246324    -0.05710
N916        N  0.29782942  0.94450725  0.45159694    -0.58460
N917        N  0.27231465  0.97629593  0.55203385    -0.03450
N918        N  0.27077325  0.97583927  0.58332868    -0.59540
Mn919      Mn  0.23250248  0.95516775  0.52418542     1.18440
C920        C  0.28625043  0.00279891  0.59275946     0.98760
C921        C  0.28367476  0.91416915  0.45616315     0.99420
N922        N  0.16819735  0.04817873  0.53739990    -0.05730
N923        N  0.15705574  0.05435891  0.56575767    -0.62040
N924        N  0.17465010  0.05553148  0.45876115    -0.04540
N925        N  0.17168675  0.06384022  0.42845952    -0.62720
N926        N  0.15655197  0.03016483  0.46554078    -0.05240
N927        N  0.14151522  0.02007017  0.43927026    -0.62310
N928        N  0.18867855  0.07091734  0.52850667    -0.04140
N929        N  0.19191038  0.09306557  0.55030999    -0.63000
Mn930      Mn  0.16469389  0.00359777  0.51086031     1.10660
C931        C  0.17224842  0.08249145  0.57363559     0.99980
C932        C  0.15115347  0.04159849  0.41649388     1.00060
N933        N  0.26810436  0.03673122  0.44108497    -0.05250
N934        N  0.27593998  0.03130856  0.41116684    -0.60620
N935        N  0.25795949  0.07780579  0.51695398    -0.04570
N936        N  0.25682542  0.10858644  0.52175261    -0.57350
N937        N  0.28380633  0.07076429  0.50198481    -0.05880
N938        N  0.29675001  0.09824381  0.49002528    -0.60190
N939        N  0.24541738  0.05818306  0.44168825    -0.04860
N940        N  0.23762306  0.06770154  0.41210827    -0.57370
Mn941      Mn  0.28426519  0.01743656  0.48836276     1.20190
Mn942      Mn  0.21700659  0.06661010  0.48647492     1.10090
Cl943      Cl  0.22458584  0.00995647  0.50128691    -0.85340
C944        C  0.25671953  0.05104158  0.39321488     0.96990
C945        C  0.27954355  0.12187051  0.50356745     0.96790
N946        N  0.95005021  0.18268417  0.52213447    -0.05500
N947        N  0.92621056  0.17779228  0.54217984    -0.57620
N948        N  0.99924438  0.18955204  0.45840107    -0.05180
N949        N  0.01326996  0.18392249  0.43146648    -0.59750
N950        N  0.01166153  0.17218415  0.48204597    -0.04780
N951        N  0.03470998  0.15445017  0.47156265    -0.57590
N952        N  0.93905692  0.19563191  0.49547710    -0.04450
N953        N  0.90808301  0.19872930  0.49597557    -0.60100
C954        C  0.90026042  0.18842373  0.52512896     0.96680
C955        C  0.03546622  0.16217853  0.43998417     0.96460
N956        N  0.00264627  0.28821071  0.44526130    -0.05680
N957        N  0.01170228  0.30396483  0.41859367    -0.58200
N958        N  0.93474284  0.26659812  0.47999090    -0.03800
N959        N  0.90312458  0.26343945  0.48050083    -0.59450
N960        N  0.94515465  0.29237643  0.49545045    -0.05710
N961        N  0.91978195  0.30646159  0.50769734    -0.58460
N962        N  0.99206197  0.25942382  0.43731528    -0.03450
N963        N  0.99337586  0.25464417  0.40663911    -0.59540
Mn964      Mn  0.96640407  0.22758289  0.46705912     1.18440
C965        C  0.00580864  0.28203625  0.39485010     0.98760
C966        C  0.89348013  0.28791864  0.49779811     0.99420
N967        N  0.05304248  0.18428494  0.54297525    -0.05730
N968        N  0.06881147  0.15894035  0.55293842    -0.62040
N969        N  0.01019159  0.22829637  0.58863278    -0.04540
N970        N  0.99546684  0.24131187  0.61227169    -0.62720
N971        N  0.99377791  0.20282804  0.57850308    -0.05240
N972        N  0.96763807  0.19826577  0.59510051    -0.62310
N973        N  0.06893390  0.21062370  0.55120255    -0.04140
N974        N  0.09589771  0.20373764  0.56698325    -0.63000
Mn975      Mn  0.00189979  0.18365659  0.53176589     1.10660
C976        C  0.09538167  0.17147081  0.56781903     0.99980
C977        C  0.96878000  0.22266757  0.61590417     1.00060
N978        N  0.99925359  0.31002576  0.55412546    -0.05250
N979        N  0.98069736  0.32386412  0.57559130    -0.60620
N980        N  0.07025003  0.28088781  0.52451838    -0.04570
N981        N  0.10089018  0.27699885  0.52089595    -0.57350
N982        N  0.05703153  0.29823846  0.50113721    -0.05880
N983        N  0.07994044  0.30563266  0.48004547    -0.60190
N984        N  0.02284070  0.29659041  0.57027677    -0.04860
N985        N  0.02263926  0.30208137  0.60076754    -0.57370
Mn986      Mn  0.00062526  0.30037619  0.49884070     1.20190
Mn987      Mn  0.04383601  0.25412755  0.55829801     1.10090
Cl988      Cl  0.00335650  0.24168212  0.51369147    -0.85340
C989        C  0.99648125  0.31860790  0.60491391     0.96990
C990        C  0.10726463  0.29246255  0.49348973     0.96790
N991        N  0.01090991  0.93618249  0.29969615    -0.05500
N992        N  0.99609831  0.91207484  0.31387928    -0.57620
N993        N  0.08071245  0.97457534  0.28424106    -0.05180
N994        N  0.11188131  0.98146510  0.28385662    -0.59750
N995        N  0.06863697  0.98155364  0.31175960    -0.04780
N996        N  0.09144722  0.99340858  0.33084974    -0.57590
N997        N  0.02510166  0.92683073  0.27396361    -0.04450
N998        N  0.02125795  0.89552221  0.27100702    -0.60100
C999        C  0.00214709  0.88703104  0.29550318     0.96680
C1000       C  0.11808088  0.99288636  0.31316034     0.96460
N1001       N  0.05689037  0.02182633  0.20288160    -0.05680
N1002       N  0.07931145  0.04519668  0.19706828    -0.58200
N1003       N  0.02486928  0.94973563  0.20111488    -0.03800
N1004       N  0.02313545  0.91873361  0.19870913    -0.59450
N1005       N  0.99660111  0.96246146  0.19881146    -0.05710
N1006       N  0.97444618  0.93802842  0.20044847    -0.58460
N1007       N  0.07216020  0.99731754  0.21557857    -0.03450
N1008       N  0.10316970  0.00207696  0.21738045    -0.59540
Mn1009     Mn  0.05098098  0.96173099  0.24361159     1.18440
C1010       C  0.10834436  0.03161107  0.20586116     0.98760
C1011       C  0.99210940  0.91032609  0.19987074     0.99420
N1012       N  0.02433591  0.03332619  0.33233373    -0.05730
N1013       N  0.04641798  0.04552759  0.35225695    -0.62040
N1014       N  0.95077651  0.01092060  0.30840187    -0.04540
N1015       N  0.91968249  0.00985040  0.31107288    -0.62720
N1016       N  0.96411143  0.98683801  0.32355589    -0.05240
N1017       N  0.94151838  0.96893366  0.33798204    -0.62310
N1018       N  0.00967198  0.05625499  0.31630688    -0.04140
N1019       N  0.02115234  0.08455469  0.32503477    -0.63000
Mn1020     Mn  0.01682177  0.98349735  0.31864444     1.10660
C1021       C  0.04429014  0.07752803  0.34724642     0.99980
C1022       C  0.91362317  0.98367515  0.32902265     1.00060
N1023       N  0.94576443  0.01754757  0.21634577    -0.05250
N1024       N  0.91929218  0.00185042  0.20501166    -0.60620
N1025       N  0.99510724  0.07964621  0.24770658    -0.04570
N1026       N  0.99572618  0.11046359  0.25305573    -0.57350
N1027       N  0.00250845  0.07317299  0.21830931    -0.05880
N1028       N  0.00877123  0.10105790  0.20278570    -0.60190
N1029       N  0.93837890  0.03276134  0.24217808    -0.04860
N1030       N  0.90766703  0.02895343  0.24828736    -0.57370
Mn1031     Mn  0.99980204  0.01886521  0.20573117     1.20190
Mn1032     Mn  0.97396794  0.04556653  0.27892225     1.10090
Cl1033     Cl  0.01075307  0.00283906  0.26162153    -0.85340
C1034       C  0.89558130  0.00975938  0.22541910     0.96990
C1035       C  0.00454794  0.12401089  0.22538366     0.96790
N1036       N  0.05645136  0.04339623  0.67147202    -0.05500
N1037       N  0.08561547  0.03285204  0.67036438    -0.57620
N1038       N  0.98662040  0.08099985  0.66188130    -0.05180
N1039       N  0.96386048  0.10169277  0.65425325    -0.59750
N1040       N  0.01074576  0.09594378  0.67653941    -0.04780
N1041       N  0.00575960  0.12639386  0.67851619    -0.57590
N1042       N  0.03559508  0.02466845  0.65594766    -0.04450
N1043       N  0.05076048  0.00011638  0.64458852    -0.60100
C1044       C  0.08199833  0.00592819  0.65382657     0.96680
C1045       C  0.97649483  0.12988085  0.66531424     0.96460
N1046       N  0.92550696  0.01817465  0.70856375    -0.05680
N1047       N  0.90106249  0.03262936  0.72043972    -0.58200
N1048       N  0.98022648  0.97588448  0.67116733    -0.03800
N1049       N  0.99170439  0.95394832  0.65277619    -0.59450
N1050       N  0.97079547  0.96254904  0.69805971    -0.05710
N1051       N  0.97541465  0.93146416  0.69872688    -0.58460
N1052       N  0.93467862  0.03280736  0.68203289    -0.03450
N1053       N  0.91646193  0.05761480  0.67573437    -0.59540
Mn1054     Mn  0.98361778  0.02827247  0.66545838     1.18440
C1055       C  0.89622950  0.05758019  0.70037251     0.98760
C1056       C  0.98793287  0.92641351  0.67019445     0.99420
N1057       N  0.02904294  0.10368957  0.74621400    -0.05730
N1058       N  0.02771922  0.13483802  0.74253367    -0.62040
N1059       N  0.06944237  0.03877025  0.76859030    -0.04540
N1060       N  0.09669587  0.02814913  0.78243327    -0.62720
N1061       N  0.07648756  0.05224807  0.74088283    -0.05240
N1062       N  0.10723619  0.05186779  0.73532892    -0.62310
N1063       N  0.01610139  0.09340396  0.77304312    -0.04140
N1064       N  0.00452786  0.11870952  0.78774860    -0.63000
Mn1065     Mn  0.04344570  0.07382591  0.70851828     1.10660
C1066       C  0.01242238  0.14445005  0.76800080     0.99980
C1067       C  0.11991236  0.03685238  0.76088579     1.00060
N1068       N  0.99126695  0.96723797  0.76758598    -0.05250
N1069       N  0.99417245  0.93649920  0.76542829    -0.60620
N1070       N  0.96017197  0.03876591  0.79037548    -0.04570
N1071       N  0.93833842  0.05916570  0.80075149    -0.57350
N1072       N  0.94413047  0.01404800  0.77853793    -0.05880
N1073       N  0.91335606  0.01513669  0.78271603    -0.60190
N1074       N  0.01595980  0.98139425  0.78250910    -0.04860
N1075       N  0.03750095  0.95855386  0.78960816    -0.57370
Mn1076     Mn  0.95775879  0.99003336  0.73808015     1.20190
Mn1077     Mn  0.01583185  0.03830798  0.78177764     1.10090
Cl1078     Cl  0.00060640  0.03243535  0.72381441    -0.85340
C1079       C  0.02260771  0.93037365  0.77903426     0.96990
C1080       C  0.90886834  0.04318088  0.79596164     0.96790
C1081       C  0.99730638  0.25711324  0.25967555     0.01180
C1082       C  0.98809572  0.28187342  0.23913125     0.01180
C1083       C  0.74082982  0.97397176  0.25247629     0.01180
C1084       C  0.76771803  0.97634674  0.27269939     0.01180
C1085       C  0.99541489  0.75713789  0.24289874     0.01180
C1086       C  0.98730320  0.78165376  0.26277745     0.01180
C1087       C  0.26645677  0.05181368  0.23351213     0.01180
C1088       C  0.24015733  0.05432883  0.25309506     0.01180
C1089       C  0.25995745  0.27347797  0.46734807     0.01180
C1090       C  0.23546021  0.25078704  0.47139817     0.01180
C1091       C  0.73393825  0.28980220  0.51767970     0.01180
C1092       C  0.75500362  0.26503470  0.52221833     0.01180
C1093       C  0.25625344  0.77873058  0.43867612     0.01180
C1094       C  0.27831864  0.75417257  0.44191445     0.01180
C1095       C  0.25158452  0.03429543  0.72254749     0.01180
C1096       C  0.27649657  0.03722058  0.74496580     0.01180
C1097       C  0.25298700  0.27100986  0.94251016     0.01180
C1098       C  0.22701969  0.29066248  0.94617904     0.01180
C1099       C  0.24610951  0.76306011  0.01635808     0.01180
C1100       C  0.26989806  0.78680755  0.02032290     0.01180
C1101       C  0.51548365  0.75432769  0.25932169     0.01180
C1102       C  0.51287850  0.77962675  0.23738263     0.01180
C1103       C  0.48176312  0.27827100  0.23640236     0.01180
C1104       C  0.48583557  0.25081086  0.21907609     0.01180
C1105       C  0.48333603  0.30056797  0.71707263     0.01180
C1106       C  0.47913606  0.27463075  0.73810397     0.01180
C1107       C  0.99681495  0.29798177  0.76443887     0.01180
C1108       C  0.99172116  0.27906550  0.73796960     0.01180
C1109       C  0.75301096  0.28037078  0.02253709     0.01180
C1110       C  0.72767856  0.25817061  0.02475914     0.01180
C1111       C  0.27572414  0.54228996  0.25522709     0.01180
C1112       C  0.25308011  0.54540123  0.23031120     0.01180
C1113       C  0.74858542  0.49098019  0.26781726     0.01180
C1114       C  0.76753813  0.49053103  0.24109675     0.01180
C1115       C  0.27331755  0.47974230  0.73700216     0.01180
C1116       C  0.24583907  0.47948978  0.75552031     0.01180
C1117       C  0.04334575  0.77726369  0.76434464     0.01180
C1118       C  0.04441792  0.79990157  0.73978215     0.01180
C1119       C  0.75120937  0.05648750  0.77458764     0.01180
C1120       C  0.77546615  0.05758878  0.75256912     0.01180
C1121       C  0.77184764  0.76107109  0.02150039     0.01180
C1122       C  0.74477190  0.77913895  0.02313158     0.01180
C1123       C  0.75452978  0.57077866  0.74356080     0.01180
C1124       C  0.77935378  0.57040009  0.76627364     0.01180
C1125       C  0.75875609  0.76912528  0.51879059     0.01180
C1126       C  0.78638046  0.78828623  0.51959831     0.01180
C1127       C  0.55059174  0.77714612  0.73702117     0.01180
C1128       C  0.54995295  0.79920646  0.76156877     0.01180
C1129       C  0.82178788  0.02849016  0.77914737     0.24220
C1130       C  0.81039857  0.05701996  0.76524037    -0.23890
C1131       C  0.83135323  0.08455917  0.76705411     0.19120
C1132       C  0.86354018  0.08239457  0.78004105     0.24160
C1133       C  0.87417830  0.05352077  0.79463764    -0.23840
C1134       C  0.85116083  0.02774895  0.79631445     0.19060
F1135       F  0.85905792  0.99955427  0.81103983    -0.13800
F1136       F  0.80504040  0.00043051  0.77485698    -0.16160
F1137       F  0.88455636  0.10770251  0.77659920    -0.16160
F1138       F  0.82150597  0.11291901  0.75433726    -0.13800
C1139       C  0.03095158  0.20129525  0.76561583     0.24220
C1140       C  0.00481420  0.17924089  0.76941766    -0.23890
C1141       C  0.97379632  0.18986035  0.76062322     0.19120
C1142       C  0.96932392  0.22135709  0.74798959     0.24160
C1143       C  0.99583848  0.24305883  0.74334479    -0.23840
C1144       C  0.02666590  0.23220462  0.75236116     0.19060
F1145       F  0.05288969  0.25212308  0.74903119    -0.13800
F1146       F  0.06139359  0.19192969  0.77277753    -0.16160
F1147       F  0.93901665  0.23046762  0.74010881    -0.16160
F1148       F  0.94809893  0.16899270  0.76191848    -0.13800
C1149       C  0.16677102  0.00507377  0.74699282     0.24220
C1150       C  0.15513967  0.03216868  0.76180881    -0.23890
C1151       C  0.17521704  0.06004370  0.76279184     0.19120
C1152       C  0.20545660  0.06117027  0.74852228     0.24160
C1153       C  0.21699093  0.03422894  0.73320591    -0.23840
C1154       C  0.19725936  0.00598816  0.73303899     0.19060
F1155       F  0.20753575  0.97891143  0.71987386    -0.13800
F1156       F  0.14743435  0.97840614  0.74372837    -0.16160
F1157       F  0.22340750  0.08894035  0.74921181    -0.16160
F1158       F  0.16421125  0.08727805  0.77526446    -0.13800
C1159       C  0.01084921  0.84448219  0.75766890     0.24220
C1160       C  0.04085177  0.83486947  0.74782525    -0.23890
C1161       C  0.06747137  0.85670201  0.75197202     0.19120
C1162       C  0.06346682  0.88773697  0.76473575     0.24160
C1163       C  0.03329848  0.89638070  0.77596172    -0.23840
C1164       C  0.00781191  0.87299024  0.77392072     0.19060
F1165       F  0.97844916  0.87889363  0.78563147    -0.13800
F1166       F  0.98409547  0.82567354  0.75225522    -0.16160
F1167       F  0.08849733  0.90942650  0.76492055    -0.16160
F1168       F  0.09711192  0.84821843  0.74314369    -0.13800
C1169       C  0.15219356  0.07316030  0.22436862     0.24220
C1170       C  0.14268580  0.04433299  0.20910100    -0.23890
C1171       C  0.16611501  0.02048045  0.20782359     0.19120
C1172       C  0.19516084  0.02289118  0.22531507     0.24160
C1173       C  0.20584862  0.05177868  0.23900646    -0.23840
C1174       C  0.18398136  0.07732035  0.23801056     0.19060
F1175       F  0.19275353  0.10570971  0.25140567    -0.13800
F1176       F  0.13050985  0.09642411  0.22760595    -0.16160
F1177       F  0.21209984  0.99595209  0.23038801    -0.16160
F1178       F  0.15908364  0.99235920  0.19288908    -0.13800
C1179       C  0.95680675  0.83302151  0.24283770     0.24220
C1180       C  0.98553144  0.81561626  0.24806842    -0.23890
C1181       C  0.01333231  0.82846945  0.23400433     0.19120
C1182       C  0.01231040  0.85526442  0.21346791     0.24160
C1183       C  0.98533228  0.87570398  0.21162837    -0.23840
C1184       C  0.95720608  0.86372882  0.22662599     0.19060
F1185       F  0.93029236  0.88133048  0.22553547    -0.13800
F1186       F  0.92846031  0.82054879  0.25341064    -0.16160
F1187       F  0.03944248  0.86217123  0.19697682    -0.16160
F1188       F  0.04193566  0.81404927  0.23917731    -0.13800
C1189       C  0.83674913  0.01871218  0.22624454     0.24220
C1190       C  0.86166691  0.99661865  0.22826662    -0.23890
C1191       C  0.85533941  0.96720483  0.24474327     0.19120
C1192       C  0.82527357  0.96060427  0.25927976     0.24160
C1193       C  0.80080493  0.98340539  0.25821191    -0.23840
C1194       C  0.80712132  0.01241628  0.24095363     0.19060
F1195       F  0.78493762  0.03560396  0.23924599    -0.13800
F1196       F  0.84206032  0.04786337  0.21192310    -0.16160
F1197       F  0.82040890  0.93223108  0.27516642    -0.16160
F1198       F  0.87917498  0.94586588  0.24894260    -0.13800
C1199       C  0.03212487  0.17807514  0.23018538     0.24220
C1200       C  0.00408119  0.15976274  0.22228358    -0.23890
C1201       C  0.97419241  0.17438530  0.22545722     0.19120
C1202       C  0.97231173  0.20545103  0.23778416     0.24160
C1203       C  0.00027159  0.22328437  0.24713370    -0.23840
C1204       C  0.03033198  0.20953588  0.24182751     0.19060
F1205       F  0.05822102  0.22627818  0.24780747    -0.13800
F1206       F  0.06135584  0.16459651  0.22884911    -0.16160
F1207       F  0.94286208  0.21776593  0.24164801    -0.16160
F1208       F  0.94642197  0.15730138  0.21922013    -0.13800
C1209       C  0.01510228  0.31237875  0.69193665     0.24220
C1210       C  0.98875778  0.29465757  0.70431083    -0.23890
C1211       C  0.96034312  0.29281014  0.68450331     0.19120
C1212       C  0.96006393  0.30470500  0.65215509     0.24160
C1213       C  0.98726307  0.32120884  0.63954021    -0.23840
C1214       C  0.01363864  0.32689605  0.66124735     0.19060
F1215       F  0.04059297  0.34264962  0.65079256    -0.13800
F1216       F  0.04352071  0.31383863  0.70877034    -0.16160
F1217       F  0.93433108  0.29758604  0.63254263    -0.16160
F1218       F  0.93356226  0.27740598  0.69553907    -0.13800
C1219       C  0.83475197  0.28836292  0.48088001     0.24220
C1220       C  0.85817623  0.28982568  0.50606564    -0.23890
C1221       C  0.84716882  0.28364288  0.53738815     0.19120
C1222       C  0.81413693  0.27544436  0.54298334     0.24160
C1223       C  0.79109974  0.27261518  0.51738833    -0.23840
C1224       C  0.80210771  0.28000948  0.48637357     0.19060
F1225       F  0.78121724  0.27814168  0.46085711    -0.13800
F1226       F  0.84395341  0.29327754  0.45024014    -0.16160
F1227       F  0.80497345  0.26915162  0.57338183    -0.16160
F1228       F  0.86875235  0.28323129  0.56240074    -0.13800
C1229       C  0.14777944  0.27486251  0.45367666     0.24220
C1230       C  0.14066259  0.29078453  0.48186674    -0.23890
C1231       C  0.16503068  0.29336864  0.50593549     0.19120
C1232       C  0.19395052  0.27762046  0.50378545     0.24160
C1233       C  0.20158673  0.26183547  0.47577625    -0.23840
C1234       C  0.17837250  0.26133719  0.45032070     0.19060
F1235       F  0.18507564  0.24709712  0.42253316    -0.13800
F1236       F  0.12468283  0.27072599  0.43035412    -0.16160
F1237       F  0.21435068  0.27774734  0.52965144    -0.16160
F1238       F  0.15934344  0.30855004  0.53354890    -0.13800
C1239       C  0.03338687  0.27655957  0.34338438     0.24220
C1240       C  0.00616240  0.28592479  0.35953086    -0.23890
C1241       C  0.97608124  0.28406778  0.34299786     0.19120
C1242       C  0.97316491  0.27247220  0.31171191     0.24160
C1243       C  0.00038308  0.26316076  0.29533664    -0.23840
C1244       C  0.03066499  0.26561168  0.31171180     0.19060
F1245       F  0.05800030  0.25852954  0.29698012    -0.13800
F1246       F  0.06250707  0.27621583  0.35901654    -0.16160
F1247       F  0.94350149  0.27037080  0.29721190    -0.16160
F1248       F  0.94888914  0.29106672  0.35830329    -0.13800
C1249       C  0.05261639  0.15631734  0.38435181     0.24220
C1250       C  0.05399222  0.14559492  0.41647352    -0.23890
C1251       C  0.06595624  0.11513781  0.42398849     0.19120
C1252       C  0.06852017  0.09309198  0.39972963     0.24160
C1253       C  0.05909954  0.10179625  0.36825116    -0.23840
C1254       C  0.05518303  0.13432526  0.36016298     0.19060
F1255       F  0.04915076  0.14394084  0.32935484    -0.13800
F1256       F  0.04444357  0.18681662  0.37633465    -0.16160
F1257       F  0.07529812  0.06227779  0.40780263    -0.16160
F1258       F  0.07056858  0.10513191  0.45484416    -0.13800
C1259       C  0.97257184  0.21737722  0.67118735     0.24220
C1260       C  0.95081565  0.22119303  0.64545795    -0.23890
C1261       C  0.92466185  0.19927560  0.64413245     0.19120
C1262       C  0.93199107  0.16707067  0.65029941     0.24160
C1263       C  0.96080797  0.16058267  0.66710887    -0.23840
C1264       C  0.97843085  0.18633853  0.68141566     0.19060
F1265       F  0.00590815  0.18190259  0.69900874    -0.13800
F1266       F  0.99752081  0.23874226  0.67521935    -0.16160
F1267       F  0.91527190  0.14335554  0.63510202    -0.16160
F1268       F  0.89810979  0.20703561  0.62649450    -0.13800
C1269       C  0.26849951  0.99616221  0.68072424     0.24220
C1270       C  0.25907364  0.02708719  0.68830062    -0.23890
C1271       C  0.26164689  0.05152183  0.66447982     0.19120
C1272       C  0.27279870  0.04483179  0.63366763     0.24160
C1273       C  0.28214547  0.01364378  0.62632873    -0.23840
C1274       C  0.28023845  0.98971287  0.65062053     0.19060
F1275       F  0.28905580  0.95933077  0.64488935    -0.13800
F1276       F  0.26663905  0.97186372  0.70273137    -0.16160
F1277       F  0.27308747  0.06840453  0.61077625    -0.16160
F1278       F  0.25338090  0.08184350  0.67108166    -0.13800
C1279       C  0.26379814  0.17652681  0.51741389     0.24220
C1280       C  0.27487445  0.15637067  0.49363290    -0.23890
C1281       C  0.27013253  0.16649258  0.46142835     0.19120
C1282       C  0.25529110  0.19607694  0.45363659     0.24160
C1283       C  0.24387092  0.21582698  0.47778280    -0.23840
C1284       C  0.24777989  0.20487896  0.50968107     0.19060
F1285       F  0.23801047  0.22271788  0.53403108    -0.13800
F1286       F  0.26730300  0.16789213  0.54882416    -0.16160
F1287       F  0.25223148  0.20557641  0.42248621    -0.16160
F1288       F  0.27853408  0.14724917  0.43751270    -0.13800
C1289       C  0.29492931  0.85820169  0.47027418     0.24220
C1290       C  0.29056614  0.88088709  0.44497461    -0.23890
C1291       C  0.27644032  0.86878700  0.41622592     0.19120
C1292       C  0.26636616  0.83575604  0.41359452     0.24160
C1293       C  0.26788368  0.81423613  0.44029610    -0.23840
C1294       C  0.28151632  0.82683653  0.46885201     0.19060
F1295       F  0.27949643  0.80989594  0.49669339    -0.13800
F1296       F  0.30716677  0.86825555  0.49900552    -0.16160
F1297       F  0.25309030  0.82540495  0.38548628    -0.16160
F1298       F  0.26974218  0.88944729  0.39158873    -0.13800
C1299       C  0.24793882  0.08223068  0.30650300     0.24220
C1300       C  0.24449295  0.05368879  0.28917533    -0.23890
C1301       C  0.24509533  0.02427769  0.30654204     0.19120
C1302       C  0.25054165  0.02340505  0.33999028     0.24160
C1303       C  0.25377130  0.05193293  0.35732744    -0.23840
C1304       C  0.25177720  0.08136416  0.34018423     0.19060
F1305       F  0.25407014  0.10942656  0.35606421    -0.13800
F1306       F  0.24742449  0.11105080  0.29083556    -0.16160
F1307       F  0.25121123  0.99454421  0.35562220    -0.16160
F1308       F  0.24000178  0.99618712  0.29119401    -0.13800
C1309       C  0.15072053  0.16031050  0.58834115     0.24220
C1310       C  0.11771704  0.15213635  0.58696461    -0.23890
C1311       C  0.10685891  0.12255799  0.60013473     0.19120
C1312       C  0.12891548  0.09876140  0.60689925     0.24160
C1313       C  0.16075181  0.10428369  0.59761520    -0.23840
C1314       C  0.17256541  0.13626178  0.59540429     0.19060
F1315       F  0.20448620  0.14276993  0.59161365    -0.13800
F1316       F  0.16180806  0.18966821  0.57818702    -0.16160
F1317       F  0.11788179  0.06866498  0.61455267    -0.16160
F1318       F  0.07490293  0.11548013  0.60280171    -0.13800
C1319       C  0.16579526  0.99283896  0.34538551     0.24220
C1320       C  0.14739462  0.00995872  0.32282511    -0.23890
C1321       C  0.14278114  0.04273152  0.32752433     0.19120
C1322       C  0.14468391  0.05400624  0.35864727     0.24160
C1323       C  0.15389795  0.03294980  0.38348945    -0.23840
C1324       C  0.16824810  0.00402377  0.37641270     0.19060
F1325       F  0.18259394  0.98587207  0.39975856    -0.13800
F1326       F  0.17387416  0.96225006  0.33965314    -0.16160
F1327       F  0.13465818  0.08384115  0.36485884    -0.16160
F1328       F  0.12805220  0.06072099  0.30426522    -0.13800
C1329       C  0.13999203  0.99387199  0.66184853     0.24220
C1330       C  0.10847130  0.98385410  0.65183984    -0.23890
C1331       C  0.10341269  0.95332137  0.63895804     0.19120
C1332       C  0.12991457  0.93542418  0.63176522     0.24160
C1333       C  0.16049428  0.95041571  0.63309778    -0.23840
C1334       C  0.16608558  0.97616627  0.65345491     0.19060
F1335       F  0.19610164  0.98989777  0.65621142    -0.13800
F1336       F  0.14616546  0.02270810  0.67565296    -0.16160
F1337       F  0.12519313  0.90860384  0.61423205    -0.16160
F1338       F  0.07346804  0.94265665  0.62975890    -0.13800
C1339       C  0.70922905  0.18811855  0.49573981     0.24220
C1340       C  0.71204641  0.16605284  0.52191498    -0.23890
C1341       C  0.72722050  0.17809016  0.55017367     0.19120
C1342       C  0.74003523  0.21044985  0.55120230     0.24160
C1343       C  0.74099751  0.23037798  0.52317393    -0.23840
C1344       C  0.72572354  0.21794252  0.49548366     0.19060
F1345       F  0.72837559  0.23395126  0.46710220    -0.13800
F1346       F  0.69368796  0.17903707  0.46815931    -0.16160
F1347       F  0.75362015  0.22136303  0.57895197    -0.16160
F1348       F  0.73165026  0.15820534  0.57592611    -0.13800
C1349       C  0.76964989  0.01220546  0.31974430     0.24220
C1350       C  0.76326567  0.98147508  0.30827205    -0.23890
C1351       C  0.74741817  0.95901730  0.32910432     0.19120
C1352       C  0.73822811  0.96770338  0.36042070     0.24160
C1353       C  0.74334168  0.99946191  0.37102175    -0.23840
C1354       C  0.75895931  0.02137507  0.34928864     0.19060
F1355       F  0.76343206  0.05306622  0.35550889    -0.13800
F1356       F  0.78342574  0.03520054  0.30077529    -0.16160
F1357       F  0.72362316  0.94544938  0.37967569    -0.16160
F1358       F  0.74031459  0.92888436  0.31890483    -0.13800
C1359       C  0.74169660  0.01490113  0.67663329     0.24220
C1360       C  0.73882074  0.03958394  0.65304582    -0.23890
C1361       C  0.74908494  0.07081262  0.66254329     0.19120
C1362       C  0.76203508  0.07672414  0.69405150     0.24160
C1363       C  0.76611373  0.05150795  0.71704313    -0.23840
C1364       C  0.75533564  0.02056902  0.70751966     0.19060
F1365       F  0.75823525  0.99528896  0.72825844    -0.13800
F1366       F  0.73358808  0.98421072  0.66879055    -0.16160
F1367       F  0.77172564  0.10705234  0.70167562    -0.16160
F1368       F  0.74911430  0.09524351  0.64058275    -0.13800
C1369       C  0.76725072  0.83879112  0.54363046     0.24220
C1370       C  0.78199432  0.82411194  0.51807982    -0.23890
C1371       C  0.78289652  0.84104899  0.48849867     0.19120
C1372       C  0.76884473  0.87132345  0.48452625     0.24160
C1373       C  0.75306586  0.88541843  0.50979370    -0.23840
C1374       C  0.75264586  0.86860184  0.53940346     0.19060
F1375       F  0.73983140  0.88225629  0.56509980    -0.13800
F1376       F  0.76574757  0.82340921  0.57252308    -0.16160
F1377       F  0.77201541  0.88765511  0.45630063    -0.16160
F1378       F  0.79612904  0.82773759  0.46290299    -0.13800
C1379       C  0.82510142  0.17928738  0.57158544     0.24220
C1380       C  0.80518119  0.17979082  0.54390447    -0.23890
C1381       C  0.81309668  0.20246180  0.52030831     0.19120
C1382       C  0.84547914  0.20826605  0.51548984     0.24160
C1383       C  0.86842442  0.19442839  0.53689989    -0.23840
C1384       C  0.85827834  0.18233895  0.56658663     0.19060
F1385       F  0.87912958  0.16716244  0.58664767    -0.13800
F1386       F  0.81452182  0.16331449  0.59800584    -0.16160
F1387       F  0.85339691  0.22084858  0.48652704    -0.16160
F1388       F  0.79318554  0.20649113  0.49431307    -0.13800
C1389       C  0.86275772  0.98606539  0.39666646     0.24220
C1390       C  0.84815232  0.01474685  0.38696286    -0.23890
C1391       C  0.84413781  0.02169631  0.35443253     0.19120
C1392       C  0.85886081  0.00275116  0.33253398     0.24160
C1393       C  0.88199036  0.98052359  0.34373627    -0.23840
C1394       C  0.88041270  0.96913435  0.37522902     0.19060
F1395       F  0.89949466  0.94520566  0.38620360    -0.13800
F1396       F  0.86146859  0.97561298  0.42713887    -0.16160
F1397       F  0.85714141  0.01205279  0.30127634    -0.16160
F1398       F  0.83023988  0.04923880  0.34421182    -0.13800
C1399       C  0.82568771  0.05499333  0.66560213     0.24220
C1400       C  0.83543539  0.07794691  0.64211815    -0.23890
C1401       C  0.85246361  0.10544047  0.65211946     0.19120
C1402       C  0.86775796  0.10478342  0.68238634     0.24160
C1403       C  0.86700415  0.07572802  0.69985449    -0.23840
C1404       C  0.84033334  0.05515831  0.69549224     0.19060
F1405       F  0.83723818  0.02776159  0.71343574    -0.13800
F1406       F  0.80761324  0.02838983  0.65835170    -0.16160
F1407       F  0.88873933  0.12869962  0.69128087    -0.16160
F1408       F  0.85675634  0.13065695  0.63185500    -0.13800
C1409       C  0.20013952  0.75805779  0.41641118     0.24220
C1410       C  0.22029338  0.76979485  0.44189094    -0.23890
C1411       C  0.20791322  0.76654175  0.47268042     0.19120
C1412       C  0.18011448  0.74748783  0.47846393     0.24160
C1413       C  0.15733679  0.74004304  0.45354304    -0.23840
C1414       C  0.16817369  0.74568129  0.42202582     0.19060
F1415       F  0.14744920  0.74079094  0.39678440    -0.13800
F1416       F  0.21053258  0.76049741  0.38600722    -0.16160
F1417       F  0.17198027  0.74217065  0.50943361    -0.16160
F1418       F  0.22397055  0.77996067  0.49799641    -0.13800
C1419       C  0.01657018  0.77196944  0.31723552     0.24220
C1420       C  0.98747030  0.77602717  0.29919827    -0.23890
C1421       C  0.95860376  0.77279382  0.31600892     0.19120
C1422       C  0.95884398  0.76712543  0.34956833     0.24160
C1423       C  0.98789666  0.76309909  0.36759707    -0.23840
C1424       C  0.01677007  0.76523876  0.35068590     0.19060
F1425       F  0.04546211  0.76282351  0.36682523    -0.13800
F1426       F  0.04517029  0.77603101  0.30271270    -0.16160
F1427       F  0.93030936  0.76556808  0.36457372    -0.16160
F1428       F  0.92989154  0.77519407  0.29997817    -0.13800
C1429       C  0.07650953  0.76905297  0.66125686     0.24220
C1430       C  0.04864366  0.76556149  0.64112994    -0.23890
C1431       C  0.01901620  0.77380457  0.65385019     0.19120
C1432       C  0.01758841  0.78569146  0.68535491     0.24160
C1433       C  0.04570865  0.78955056  0.70512853    -0.23840
C1434       C  0.07502392  0.78060193  0.69260179     0.19060
F1435       F  0.10258413  0.78343164  0.71072933    -0.13800
F1436       F  0.10573702  0.76177986  0.65022303    -0.16160
F1437       F  0.98858178  0.79342959  0.69647651    -0.16160
F1438       F  0.99165222  0.77190771  0.63532508    -0.13800
C1439       C  0.86474027  0.75230826  0.55600588     0.24220
C1440       C  0.88335474  0.74629998  0.52911252    -0.23890
C1441       C  0.86861989  0.75267332  0.49875873     0.19120
C1442       C  0.83762180  0.76603758  0.49551314     0.24160
C1443       C  0.81993698  0.77372375  0.52253376    -0.23840
C1444       C  0.83362940  0.76540567  0.55278463     0.19060
F1445       F  0.81733525  0.77122937  0.57957521    -0.13800
F1446       F  0.87796452  0.74810745  0.58582462    -0.16160
F1447       F  0.82550383  0.77244773  0.46568530    -0.16160
F1448       F  0.88577193  0.74911307  0.47201949    -0.13800
C1449       C  0.92351998  0.95265153  0.48404556     0.24220
C1450       C  0.89117218  0.94365610  0.48047382    -0.23890
C1451       C  0.88085414  0.91310591  0.49091838     0.19120
C1452       C  0.89743740  0.89930314  0.51661666     0.24160
C1453       C  0.92823156  0.91187180  0.52608647    -0.23840
C1454       C  0.94132842  0.93865955  0.50879565     0.19060
F1455       F  0.97132690  0.95122206  0.51524129    -0.13800
F1456       F  0.93541053  0.97938522  0.46882116    -0.16160
F1457       F  0.88391937  0.87309835  0.53148954    -0.16160
F1458       F  0.85064560  0.90178290  0.48309010    -0.13800
C1459       C  0.13743141  0.91576831  0.40007856     0.24220
C1460       C  0.16531014  0.90891147  0.41862203    -0.23890
C1461       C  0.17775931  0.87788795  0.41693870     0.19120
C1462       C  0.15672705  0.85287510  0.40732902     0.24160
C1463       C  0.12404883  0.86009388  0.40489603    -0.23840
C1464       C  0.11750053  0.89000305  0.39037274     0.19060
F1465       F  0.08756366  0.89615264  0.37846236    -0.13800
F1466       F  0.12617183  0.94593693  0.39759927    -0.16160
F1467       F  0.16553529  0.82213634  0.41260921    -0.16160
F1468       F  0.20645666  0.87066546  0.43117691    -0.13800
C1469       C  0.96802793  0.85089184  0.32298754     0.24220
C1470       C  0.99816786  0.85508541  0.30898850    -0.23890
C1471       C  0.02556411  0.84667812  0.32728811     0.19120
C1472       C  0.02454430  0.84881911  0.36047730     0.24160
C1473       C  0.99547757  0.85639438  0.37425947    -0.23840
C1474       C  0.96667040  0.85365749  0.35592485     0.19060
F1475       F  0.93761470  0.85711166  0.36928164    -0.13800
F1476       F  0.94064980  0.85574359  0.30529994    -0.16160
F1477       F  0.05146634  0.84395530  0.37883641    -0.16160
F1478       F  0.05451795  0.84508171  0.31331895    -0.13800
C1479       C  0.01254120  0.85940741  0.62249596     0.24220
C1480       C  0.04600165  0.86424530  0.62702384    -0.23890
C1481       C  0.05815664  0.87848699  0.65498774     0.19120
C1482       C  0.03743185  0.89589868  0.67308300     0.24160
C1483       C  0.00487366  0.89767827  0.66331219    -0.23840
C1484       C  0.99185832  0.87703617  0.64016858     0.19060
F1485       F  0.96011181  0.87771248  0.63151246    -0.13800
F1486       F  0.00043974  0.84288058  0.59697073    -0.16160
F1487       F  0.04994640  0.91523422  0.69634499    -0.16160
F1488       F  0.09031361  0.88011034  0.66159798    -0.13800
C1489       C  0.74472009  0.17191370  0.99875447     0.24220
C1490       C  0.75736086  0.15725781  0.02696869    -0.23890
C1491       C  0.75930045  0.17604547  0.05472671     0.19120
C1492       C  0.74910846  0.20822350  0.05425070     0.24160
C1493       C  0.73493142  0.22234832  0.02643000    -0.23840
C1494       C  0.73281924  0.20345757  0.99872247     0.19060
F1495       F  0.71963526  0.21575439  0.97120613    -0.13800
F1496       F  0.74150867  0.15469673  0.97160311    -0.16160
F1497       F  0.75278498  0.22558354  0.08126627    -0.16160
F1498       F  0.77061356  0.16295602  0.08270078    -0.13800
C1499       C  0.73905682  0.83443763  0.00088021     0.24220
C1500       C  0.74796848  0.81520433  0.02697712    -0.23890
C1501       C  0.76569427  0.83016046  0.05253271     0.19120
C1502       C  0.77666576  0.86287222  0.04998869     0.24160
C1503       C  0.77059985  0.88085738  0.02162082    -0.23840
C1504       C  0.75061205  0.86587948  0.99782058     0.19060
F1505       F  0.74398728  0.88049220  0.96946500    -0.13800
F1506       F  0.72320292  0.82143648  0.97547596    -0.16160
F1507       F  0.79488238  0.87597758  0.07409168    -0.16160
F1508       F  0.77387714  0.81262049  0.07907088    -0.13800
C1509       C  0.77952479  0.08177723  0.86132165     0.24220
C1510       C  0.78893264  0.05193559  0.87490213    -0.23890
C1511       C  0.78386888  0.02482813  0.85449516     0.19120
C1512       C  0.76675942  0.02667876  0.82528971     0.24160
C1513       C  0.75965720  0.05604206  0.81062782    -0.23840
C1514       C  0.76665366  0.08394684  0.82900581     0.19060
F1515       F  0.76068003  0.11325022  0.81585112    -0.13800
F1516       F  0.78356964  0.10877990  0.87866025    -0.16160
F1517       F  0.75847830  0.99887078  0.81056504    -0.16160
F1518       F  0.79232730  0.99473160  0.86369733    -0.13800
C1519       C  0.73670580  0.00513193  0.20040118     0.24220
C1520       C  0.74526475  0.97670163  0.21665863    -0.23890
C1521       C  0.76312214  0.95436402  0.19995154     0.19120
C1522       C  0.77206957  0.96055507  0.16789337     0.24160
C1523       C  0.76423442  0.98962893  0.15223159    -0.23840
C1524       C  0.74687033  0.01187827  0.16933257     0.19060
F1525       F  0.73844459  0.04017516  0.15520558    -0.13800
F1526       F  0.71989357  0.02755913  0.21521242    -0.16160
F1527       F  0.78701631  0.93765302  0.15182417    -0.16160
F1528       F  0.77163366  0.92643619  0.21466291    -0.13800
C1529       C  0.26356365  0.84303521  0.04406980     0.24220
C1530       C  0.26047672  0.82203734  0.01793327    -0.23890
C1531       C  0.24445851  0.83364909  0.99001303     0.19120
C1532       C  0.23122516  0.86426932  0.98846753     0.24160
C1533       C  0.23582645  0.88621255  0.01359387    -0.23840
C1534       C  0.25215145  0.87491908  0.04163313     0.19060
F1535       F  0.25917930  0.89544921  0.06576852    -0.13800
F1536       F  0.27851621  0.83305103  0.07164345    -0.16160
F1537       F  0.21700805  0.87407551  0.96039200    -0.16160
F1538       F  0.24211064  0.81539414  0.96352936    -0.13800
C1539       C  0.21798028  0.18318428  0.93881220     0.24220
C1540       C  0.22843286  0.17083730  0.96900322    -0.23890
C1541       C  0.24605037  0.19237437  0.98925395     0.19120
C1542       C  0.25785157  0.22217107  0.97822407     0.24160
C1543       C  0.24790506  0.23495244  0.94840405    -0.23840
C1544       C  0.22707631  0.21517734  0.92895481     0.19060
F1545       F  0.21619142  0.22661068  0.90013282    -0.13800
F1546       F  0.20156448  0.16375980  0.91798428    -0.16160
F1547       F  0.27699526  0.23971277  0.99847274    -0.16160
F1548       F  0.25409486  0.18358530  0.01990221    -0.13800
C1549       C  0.25934287  0.06268332  0.83187735     0.24220
C1550       C  0.24118915  0.03585721  0.84362153    -0.23890
C1551       C  0.23693707  0.00955410  0.82301859     0.19120
C1552       C  0.25126343  0.00917027  0.79301400     0.24160
C1553       C  0.26831351  0.03616940  0.78053785    -0.23840
C1554       C  0.27193926  0.06318019  0.80046964     0.19060
F1555       F  0.28805771  0.08990311  0.78974555    -0.13800
F1556       F  0.26652572  0.08762212  0.85142630    -0.16160
F1557       F  0.24833271  0.98192781  0.77586722    -0.16160
F1558       F  0.22113866  0.98245377  0.83343553    -0.13800
C1559       C  0.24526946  0.01458375  0.15014114     0.24220
C1560       C  0.23973957  0.04179054  0.13041412    -0.23890
C1561       C  0.24248937  0.07200208  0.14537855     0.19120
C1562       C  0.25177977  0.07505275  0.17806164     0.24160
C1563       C  0.25964724  0.04813707  0.19730863    -0.23840
C1564       C  0.25529310  0.01767953  0.18281329     0.19060
F1565       F  0.26215169  0.99058268  0.19988861    -0.13800
F1566       F  0.24310217  0.98494683  0.13733310    -0.16160
F1567       F  0.25361168  0.10470655  0.19086209    -0.16160
F1568       F  0.23761185  0.09917090  0.12763914    -0.13800
C1569       C  0.47500297  0.16674211  0.26156988     0.24220
C1570       C  0.50705582  0.15841701  0.26949754    -0.23890
C1571       C  0.53154149  0.18134699  0.26124831     0.19120
C1572       C  0.52465397  0.21050935  0.24490704     0.24160
C1573       C  0.49290886  0.21836485  0.23578622    -0.23840
C1574       C  0.46807814  0.19630981  0.24523178     0.19060
F1575       F  0.43692731  0.20319758  0.23821350    -0.13800
F1576       F  0.45042949  0.14564224  0.26810368    -0.16160
F1577       F  0.54943868  0.23117793  0.23790652    -0.16160
F1578       F  0.56286140  0.17509340  0.26836766    -0.13800
C1579       C  0.48192485  0.85250943  0.28098939     0.24220
C1580       C  0.50674960  0.87645494  0.27801261    -0.23890
C1581       C  0.53343317  0.86859606  0.25985440     0.19120
C1582       C  0.53499308  0.83793151  0.24545533     0.24160
C1583       C  0.50983145  0.81428889  0.24853593    -0.23840
C1584       C  0.48313446  0.82260221  0.26613512     0.19060
F1585       F  0.45774357  0.80153886  0.26893217    -0.13800
F1586       F  0.45540437  0.85846608  0.29784569    -0.16160
F1587       F  0.56134288  0.83122047  0.22873991    -0.16160
F1588       F  0.55733783  0.89090861  0.25487754    -0.13800
C1589       C  0.35437403  0.07379494  0.26748951     0.24220
C1590       C  0.36438784  0.04429930  0.28153366    -0.23890
C1591       C  0.34130849  0.01808503  0.27841516     0.19120
C1592       C  0.31149731  0.02069205  0.26160211     0.24160
C1593       C  0.30112928  0.04984889  0.24829336    -0.23840
C1594       C  0.32312810  0.07662145  0.25175828     0.19060
F1595       F  0.31433448  0.10574210  0.24005178    -0.13800
F1596       F  0.37443736  0.10002877  0.26927633    -0.16160
F1597       F  0.29256165  0.99381956  0.25824359    -0.16160
F1598       F  0.34771610  0.98838301  0.29042379    -0.13800
C1599       C  0.69708220  0.00467060  0.27941396     0.24220
C1600       C  0.70697571  0.97632733  0.26518371    -0.23890
C1601       C  0.68403836  0.95081341  0.26223020     0.19120
C1602       C  0.65197521  0.95406959  0.27203417     0.24160
C1603       C  0.64209743  0.98266818  0.28573554    -0.23840
C1604       C  0.66550924  0.00747446  0.29004925     0.19060
F1605       F  0.65671858  0.03612910  0.30127833    -0.13800
F1606       F  0.71713986  0.03093228  0.28056510    -0.16160
F1607       F  0.62984280  0.93023559  0.26566403    -0.16160
F1608       F  0.69227558  0.92320184  0.24844626    -0.13800
C1609       C  0.39130706  0.99849632  0.11637181     0.24220
C1610       C  0.35946092  0.99899071  0.10560405    -0.23890
C1611       C  0.33452426  0.99795014  0.12751489     0.19120
C1612       C  0.34164272  0.00666329  0.15887303     0.24160
C1613       C  0.37296732  0.01600273  0.16712789    -0.23840
C1614       C  0.39826098  0.00920016  0.14653694     0.19060
F1615       F  0.42949365  0.01718995  0.15325731    -0.13800
F1616       F  0.41578582  0.99693832  0.09565545    -0.16160
F1617       F  0.31833771  0.00956611  0.18011834    -0.16160
F1618       F  0.30345305  0.99469692  0.11704775    -0.13800
C1619       C  0.62568494  0.94558349  0.11756179     0.24220
C1620       C  0.61655152  0.94695106  0.08487374    -0.23890
C1621       C  0.58398712  0.95103463  0.07622235     0.19120
C1622       C  0.56235829  0.95966260  0.09941528     0.24160
C1623       C  0.57338300  0.96447302  0.13121052    -0.23840
C1624       C  0.60441710  0.95480211  0.14054234     0.19060
F1625       F  0.61521369  0.95706394  0.17143642    -0.13800
F1626       F  0.65673811  0.94014269  0.12674681    -0.16160
F1627       F  0.53189981  0.96706614  0.08995603    -0.16160
F1628       F  0.57419062  0.95140570  0.04496208    -0.13800
C1629       C  0.65084143  0.29918096  0.99230190     0.24220
C1630       C  0.63067176  0.30031280  0.01895327    -0.23890
C1631       C  0.64324508  0.28706589  0.04805731     0.19120
C1632       C  0.67420164  0.27309823  0.05009842     0.24160
C1633       C  0.69298079  0.27009226  0.02270754    -0.23840
C1634       C  0.68034039  0.28319992  0.99378355     0.19060
F1635       F  0.69613050  0.27956370  0.96625880    -0.13800
F1636       F  0.63972705  0.30987175  0.96322317    -0.16160
F1637       F  0.68542446  0.26165594  0.07880157    -0.16160
F1638       F  0.62454872  0.28554148  0.07411428    -0.13800
C1639       C  0.33095510  0.32024855  0.96456981     0.24220
C1640       C  0.35105754  0.31638344  0.93846037    -0.23890
C1641       C  0.33722591  0.29942535  0.91214375     0.19120
C1642       C  0.30552352  0.28539473  0.91299925     0.24160
C1643       C  0.28744307  0.28578981  0.94105560    -0.23840
C1644       C  0.30183716  0.30239515  0.96722881     0.19060
F1645       F  0.28929787  0.29943969  0.99666216    -0.13800
F1646       F  0.34319308  0.33505993  0.99112353    -0.16160
F1647       F  0.29344710  0.26946485  0.88712907    -0.16160
F1648       F  0.35576908  0.29339696  0.88693882    -0.13800
C1649       C  0.46230705  0.29337716  0.82732300     0.24220
C1650       C  0.49373207  0.29725464  0.84103982    -0.23890
C1651       C  0.51963695  0.29341676  0.82048461     0.19120
C1652       C  0.51468165  0.28523773  0.78811794     0.24160
C1653       C  0.48348997  0.28055237  0.77427489    -0.23840
C1654       C  0.45729473  0.28549829  0.79438880     0.19060
F1655       F  0.42673114  0.28225794  0.78228127    -0.13800
F1656       F  0.43643041  0.29569463  0.84605588    -0.16160
F1657       F  0.54090644  0.28016596  0.77064736    -0.16160
F1658       F  0.55041977  0.29631952  0.83220882    -0.13800
C1659       C  0.50831940  0.27071727  0.13262646     0.24220
C1660       C  0.47937963  0.28390321  0.12077167    -0.23890
C1661       C  0.45205512  0.28045369  0.14003762     0.19120
C1662       C  0.45343635  0.26476783  0.16989652     0.24160
C1663       C  0.48275003  0.25405881  0.18307915    -0.23840
C1664       C  0.51006871  0.25616492  0.16360629     0.19060
F1665       F  0.53884946  0.24581224  0.17515600    -0.13800
F1666       F  0.53460373  0.27128599  0.11413032    -0.16160
F1667       F  0.42643039  0.26256249  0.18741745    -0.16160
F1668       F  0.42332505  0.29206478  0.12956586    -0.13800
C1669       C  0.45328768  0.18218554  0.13825105     0.24220
C1670       C  0.47622481  0.18460013  0.11439810    -0.23890
C1671       C  0.50877272  0.17967715  0.12194046     0.19120
C1672       C  0.51719961  0.16615534  0.15150491     0.24160
C1673       C  0.49250271  0.15560054  0.17171424    -0.23840
C1674       C  0.46145963  0.16723607  0.16713423     0.19060
F1675       F  0.43782988  0.15848444  0.18757841    -0.13800
F1676       F  0.42206936  0.18936443  0.13183680    -0.16160
F1677       F  0.54809927  0.15738017  0.15718152    -0.16160
F1678       F  0.53166847  0.18499221  0.09976918    -0.13800
C1679       C  0.36578279  0.16287016  0.89028323     0.24220
C1680       C  0.35997158  0.18636135  0.91275418    -0.23890
C1681       C  0.32789992  0.19047899  0.92125345     0.19120
C1682       C  0.30629837  0.16446846  0.91652967     0.24160
C1683       C  0.31944961  0.13539246  0.90864300    -0.23840
C1684       C  0.34200921  0.13911569  0.88506680     0.19060
F1685       F  0.33389347  0.13045559  0.85479895    -0.13800
F1686       F  0.39574330  0.15847048  0.88030372    -0.16160
F1687       F  0.27799047  0.16393955  0.93069627    -0.16160
F1688       F  0.31971849  0.21500953  0.93983475    -0.13800
C1689       C  0.62856530  0.15734594  0.01129824     0.24220
C1690       C  0.59687363  0.14996853  0.00151183    -0.23890
C1691       C  0.59054772  0.13251688  0.97334735     0.19120
C1692       C  0.61555129  0.11847005  0.95833471     0.24160
C1693       C  0.64607452  0.11997901  0.97294259    -0.23840
C1694       C  0.65337739  0.14350137  0.99596118     0.19060
F1695       F  0.68351112  0.14732356  0.00874031    -0.13800
F1696       F  0.63529544  0.17767898  0.03576779    -0.16160
F1697       F  0.60913834  0.09958423  0.93273885    -0.16160
F1698       F  0.56044760  0.12989724  0.95985368    -0.13800
C1699       C  0.69909233  0.02394856  0.75809408     0.24220
C1700       C  0.71671231  0.05368775  0.76136005    -0.23890
C1701       C  0.70552954  0.07992851  0.74333158     0.19120
C1702       C  0.67936891  0.07660727  0.72178975     0.24160
C1703       C  0.65953591  0.04824484  0.72080080    -0.23840
C1704       C  0.67013590  0.02161119  0.73901126     0.19060
F1705       F  0.65201545  0.99396906  0.73955032    -0.13800
F1706       F  0.70972409  0.99701223  0.77302095    -0.16160
F1707       F  0.67213125  0.10249873  0.70290970    -0.16160
F1708       F  0.72166511  0.10872491  0.74487129    -0.13800
C1709       C  0.32751660  0.06032210  0.71794418     0.24220
C1710       C  0.31094082  0.03452350  0.73371377    -0.23890
C1711       C  0.32535260  0.00441316  0.73403475     0.19120
C1712       C  0.35555404  0.00038431  0.72035853     0.24160
C1713       C  0.37382093  0.02667882  0.70749847    -0.23840
C1714       C  0.35880826  0.05665647  0.70563382     0.19060
F1715       F  0.37537063  0.08293137  0.69449064    -0.13800
F1716       F  0.31408115  0.08955756  0.71593717    -0.16160
F1717       F  0.36856401  0.97092634  0.72268923    -0.16160
F1718       F  0.31072952  0.97885330  0.74882550    -0.13800
C1719       C  0.50700734  0.20534188  0.68829537     0.24220
C1720       C  0.48246915  0.18060603  0.68926079    -0.23890
C1721       C  0.45419926  0.18860192  0.70520186     0.19120
C1722       C  0.45204745  0.21913033  0.72049177     0.24160
C1723       C  0.47942460  0.24056541  0.72395756    -0.23840
C1724       C  0.50699261  0.23207370  0.70798975     0.19060
F1725       F  0.53431067  0.25070982  0.71047372    -0.13800
F1726       F  0.53323875  0.20255194  0.67002657    -0.16160
F1727       F  0.42391481  0.22678402  0.73358541    -0.16160
F1728       F  0.42942994  0.16675627  0.70728471    -0.13800
C1729       C  0.52127871  0.85262319  0.76149898     0.24220
C1730       C  0.54861594  0.83557583  0.75378476    -0.23890
C1731       C  0.57187354  0.85259170  0.73497619     0.19120
C1732       C  0.56751712  0.88506893  0.72431104     0.24160
C1733       C  0.53936186  0.90132220  0.73135633    -0.23840
C1734       C  0.51625137  0.88386002  0.74963922     0.19060
F1735       F  0.48820088  0.89750168  0.75698333    -0.13800
F1736       F  0.49810942  0.83889125  0.77976358    -0.16160
F1737       F  0.59129511  0.90080195  0.70822534    -0.16160
F1738       F  0.59920537  0.83791348  0.72737340    -0.13800
C1739       C  0.50459109  0.21350804  0.79550480     0.24220
C1740       C  0.47622546  0.19834366  0.78416808    -0.23890
C1741       C  0.44889943  0.19900001  0.80303417     0.19120
C1742       C  0.45367659  0.20130358  0.83603143     0.24160
C1743       C  0.48523158  0.20356547  0.84852694    -0.23840
C1744       C  0.51024149  0.21342618  0.82812604     0.19060
F1745       F  0.54090519  0.21955018  0.83909520    -0.13800
F1746       F  0.53040500  0.21725269  0.77643995    -0.16160
F1747       F  0.42827775  0.20078304  0.85538943    -0.16160
F1748       F  0.41958612  0.18931343  0.79098095    -0.13800
C1749       C  0.34991689  0.04320381  0.82459006     0.24220
C1750       C  0.35914784  0.05325021  0.85522578    -0.23890
C1751       C  0.37754156  0.08212428  0.85882893     0.19120
C1752       C  0.38719003  0.09925811  0.83182454     0.24160
C1753       C  0.38919349  0.08158913  0.80455701    -0.23840
C1754       C  0.36554751  0.05752626  0.79881436     0.19060
F1755       F  0.36707558  0.04034477  0.77233556    -0.13800
F1756       F  0.33196888  0.01576887  0.82020129    -0.16160
F1757       F  0.40609049  0.12614430  0.83488802    -0.16160
F1758       F  0.38920680  0.09200039  0.88771543    -0.13800
C1759       C  0.66090538  0.06497202  0.81565450     0.24220
C1760       C  0.65265142  0.09588029  0.82404365    -0.23890
C1761       C  0.66838873  0.11111252  0.84985775     0.19120
C1762       C  0.69038078  0.09411360  0.86894047     0.24160
C1763       C  0.69621489  0.06203663  0.86204585    -0.23840
C1764       C  0.68293787  0.04819827  0.83443995     0.19060
F1765       F  0.68652515  0.01650017  0.82927430    -0.13800
F1766       F  0.64303393  0.04893422  0.79311924    -0.16160
F1767       F  0.70232628  0.10717431  0.89648799    -0.16160
F1768       F  0.65935123  0.14049679  0.85891010    -0.13800
C1769       C  0.32374273  0.76564060  0.04466681     0.24220
C1770       C  0.30512250  0.77766313  0.01822199    -0.23890
C1771       C  0.31836794  0.77591101  0.98789876     0.19120
C1772       C  0.34818593  0.76194719  0.98371114     0.24160
C1773       C  0.36853617  0.75273092  0.00995982    -0.23840
C1774       C  0.35555960  0.75442277  0.04074209     0.19060
F1775       F  0.37415447  0.74726016  0.06699901    -0.13800
F1776       F  0.31171856  0.76609539  0.07443886    -0.16160
F1777       F  0.35860247  0.75999035  0.95334501    -0.16160
F1778       F  0.30216766  0.78766573  0.96176330    -0.13800
C1779       C  0.70317587  0.75456989  0.98334267     0.24220
C1780       C  0.71204716  0.76323512  0.01507806    -0.23890
C1781       C  0.69238654  0.75129159  0.03963552     0.19120
C1782       C  0.66432371  0.73256074  0.03263130     0.24160
C1783       C  0.65242835  0.72926941  0.00070621    -0.23840
C1784       C  0.67362863  0.73824227  0.97630044     0.19060
F1785       F  0.66380858  0.73496494  0.94525673    -0.13800
F1786       F  0.72262411  0.76279005  0.95881828    -0.16160
F1787       F  0.64507070  0.72360026  0.05714943    -0.16160
F1788       F  0.70028818  0.75789476  0.07057981    -0.13800
C1789       C  0.53834676  0.74422049  0.15964329     0.24220
C1790       C  0.51114803  0.74790995  0.13902885    -0.23890
C1791       C  0.48458702  0.76373495  0.15075874     0.19120
C1792       C  0.48540218  0.77542617  0.18229737     0.24160
C1793       C  0.51318250  0.77240395  0.20230434    -0.23840
C1794       C  0.53984090  0.75737296  0.19011754     0.19060
F1795       F  0.56762608  0.75545660  0.20792155    -0.13800
F1796       F  0.56507283  0.73049010  0.14885800    -0.16160
F1797       F  0.45914839  0.78977098  0.19325306    -0.16160
F1798       F  0.45881701  0.76975685  0.13106414    -0.13800
C1799       C  0.56852974  0.78432478  0.81937003     0.24220
C1800       C  0.54361474  0.78695116  0.79569960    -0.23890
C1801       C  0.51244393  0.77611463  0.80429858     0.19120
C1802       C  0.50634104  0.76330637  0.83486948     0.24160
C1803       C  0.53057473  0.76223358  0.85908738    -0.23840
C1804       C  0.56200387  0.77263705  0.85084239     0.19060
F1805       F  0.58588525  0.77354367  0.87371034    -0.13800
F1806       F  0.59899784  0.79415235  0.81236684    -0.16160
F1807       F  0.47554695  0.75432417  0.84173732    -0.16160
F1808       F  0.48696893  0.77942524  0.78366560    -0.13800
C1809       C  0.53295405  0.96966892  0.88707036     0.24220
C1810       C  0.55812324  0.96669063  0.86583116    -0.23890
C1811       C  0.56595014  0.93597163  0.85559712     0.19120
C1812       C  0.54687776  0.90921516  0.86409501     0.24160
C1813       C  0.52109288  0.91286173  0.88418915    -0.23840
C1814       C  0.51289789  0.94345247  0.89364340     0.19060
F1815       F  0.48748675  0.94707861  0.91285014    -0.13800
F1816       F  0.52438384  0.99888063  0.89710832    -0.16160
F1817       F  0.55491417  0.87957721  0.85476430    -0.16160
F1818       F  0.58898084  0.93281225  0.83362803    -0.13800
C1819       C  0.47474970  0.85695603  0.13476992     0.24220
C1820       C  0.50824417  0.86268888  0.13544652    -0.23890
C1821       C  0.52342203  0.88008469  0.15999645     0.19120
C1822       C  0.50462049  0.89673557  0.18037524     0.24160
C1823       C  0.47096920  0.89564010  0.17579282    -0.23840
C1824       C  0.45591371  0.87367213  0.15515967     0.19060
F1825       F  0.42331950  0.87221040  0.15142679    -0.13800
F1826       F  0.46022536  0.83936292  0.11114496    -0.16160
F1827       F  0.51914453  0.91819067  0.20058613    -0.16160
F1828       F  0.55584508  0.88553370  0.16054166    -0.13800
C1829       C  0.40012538  0.89011754  0.07285810     0.24220
C1830       C  0.39824749  0.86224894  0.05479154    -0.23890
C1831       C  0.36811583  0.85281169  0.04132259     0.19120
C1832       C  0.34671385  0.87670039  0.03273424     0.24160
C1833       C  0.35527091  0.90843579  0.04057562    -0.23840
C1834       C  0.37846909  0.91390629  0.06506714     0.19060
F1835       F  0.38461723  0.94372071  0.07600633    -0.13800
F1836       F  0.42743788  0.89824294  0.08978909    -0.16160
F1837       F  0.32242635  0.86996876  0.01123689    -0.16160
F1838       F  0.36405116  0.82391434  0.02744403    -0.13800
C1839       C  0.64675868  0.88909768  0.89112235     0.24220
C1840       C  0.67816955  0.88243109  0.90166881    -0.23890
C1841       C  0.68230193  0.85204013  0.91559844     0.19120
C1842       C  0.65803531  0.84014238  0.93561597     0.24160
C1843       C  0.62933592  0.85715108  0.93656981    -0.23840
C1844       C  0.62209558  0.87862382  0.91113489     0.19060
F1845       F  0.59363803  0.89339209  0.90925944    -0.13800
F1846       F  0.64179020  0.91460607  0.87110118    -0.16160
F1847       F  0.66364860  0.81502392  0.95591717    -0.16160
F1848       F  0.71194505  0.83934178  0.91696590    -0.13800
C1849       C  0.81225220  0.80126323  0.99921361     0.24220
C1850       C  0.80527398  0.77711429  0.02210419    -0.23890
C1851       C  0.82866172  0.77183908  0.04687121     0.19120
C1852       C  0.85886301  0.78907886  0.04722635     0.24160
C1853       C  0.86526644  0.81364775  0.02425155    -0.23840
C1854       C  0.84008009  0.82088614  0.00198410     0.19060
F1855       F  0.84475548  0.84419564  0.97921035    -0.13800
F1856       F  0.79228775  0.80539545  0.97325125    -0.16160
F1857       F  0.88239430  0.78034747  0.06857561    -0.16160
F1858       F  0.82272610  0.74937436  0.07008033    -0.13800
C1859       C  0.19267781  0.76930470  0.98407906     0.24220
C1860       C  0.21063202  0.77241662  0.01319665    -0.23890
C1861       C  0.19627078  0.78952801  0.03761998     0.19120
C1862       C  0.16553196  0.80299051  0.03304384     0.24160
C1863       C  0.14779729  0.80012668  0.00383984    -0.23840
C1864       C  0.16211880  0.78307021  0.97949378     0.19060
F1865       F  0.14532324  0.77779587  0.95163990    -0.13800
F1866       F  0.20470227  0.75328684  0.95953919    -0.16160
F1867       F  0.15199249  0.81696204  0.05815414    -0.16160
F1868       F  0.21189426  0.79271782  0.06641104    -0.13800
C1869       C  0.05588904  0.81283752  0.84979674     0.24220
C1870       C  0.02364361  0.81501403  0.85923557    -0.23890
C1871       C  0.99933884  0.80460573  0.83649304     0.19120
C1872       C  0.00656316  0.78906880  0.80857773     0.24160
C1873       C  0.03815653  0.78761031  0.79850938    -0.23840
C1874       C  0.06295820  0.80040298  0.81919422     0.19060
F1875       F  0.09400326  0.80017040  0.81011776    -0.13800
F1876       F  0.08037407  0.82249812  0.86987769    -0.16160
F1877       F  0.98179108  0.77666954  0.79041511    -0.16160
F1878       F  0.96749737  0.80883910  0.84093739    -0.13800
C1879       C  0.02778425  0.77932249  0.15913530     0.24220
C1880       C  0.00014212  0.78879581  0.14128574    -0.23890
C1881       C  0.97036855  0.78527467  0.15651737     0.19120
C1882       C  0.96862471  0.77334926  0.18861518     0.24160
C1883       C  0.99651488  0.76390544  0.20650492    -0.23840
C1884       C  0.02605272  0.76690857  0.19068705     0.19060
F1885       F  0.05397315  0.75915504  0.20592896    -0.13800
F1886       F  0.05700059  0.78110301  0.14536206    -0.16160
F1887       F  0.93943229  0.77082018  0.20229400    -0.16160
F1888       F  0.94273654  0.79185821  0.13986705    -0.13800
C1889       C  0.82914594  0.24064977  0.99383667     0.24220
C1890       C  0.85266422  0.24742309  0.01803445    -0.23890
C1891       C  0.84299011  0.26537675  0.04416348     0.19120
C1892       C  0.81085160  0.27586210  0.04592978     0.24160
C1893       C  0.78773582  0.26959295  0.02112481    -0.23840
C1894       C  0.79774168  0.25214542  0.99493247     0.19060
F1895       F  0.77764259  0.24782358  0.96913427    -0.13800
F1896       F  0.83767703  0.22547642  0.96710240    -0.16160
F1897       F  0.80265518  0.29315997  0.07138195    -0.16160
F1898       F  0.86522400  0.27489323  0.06674782    -0.13800
C1899       C  0.97232524  0.24168366  0.83306590     0.24220
C1900       C  0.99946821  0.24047105  0.85440187    -0.23890
C1901       C  0.02737159  0.25814627  0.84506363     0.19120
C1902       C  0.02723151  0.27699678  0.81605980     0.24160
C1903       C  0.99832346  0.28134369  0.79754859    -0.23840
C1904       C  0.97089980  0.26372179  0.80737762     0.19060
F1905       F  0.94226290  0.26747709  0.79144422    -0.13800
F1906       F  0.94507212  0.22416486  0.83963032    -0.16160
F1907       F  0.05499128  0.29194711  0.80687623    -0.16160
F1908       F  0.05400250  0.25874804  0.86466101    -0.13800
C1909       C  0.16692932  0.27601322  0.93186913     0.24220
C1910       C  0.19364016  0.27516324  0.95380678    -0.23890
C1911       C  0.18917246  0.25648074  0.98211141     0.19120
C1912       C  0.16015332  0.23928233  0.98797459     0.24160
C1913       C  0.13273735  0.24173908  0.96738833    -0.23840
C1914       C  0.13675711  0.26024893  0.93887510     0.19060
F1915       F  0.11095789  0.26504722  0.91887005    -0.13800
F1916       F  0.16961730  0.29320652  0.90411516    -0.16160
F1917       F  0.15774530  0.22273481  0.01619741    -0.16160
F1918       F  0.21226376  0.25623388  0.00566166    -0.13800
C1919       C  0.96068322  0.25881880  0.15248884     0.24220
C1920       C  0.99047693  0.25288759  0.13877450    -0.23890
C1921       C  0.01858373  0.25806739  0.15822139     0.19120
C1922       C  0.01732041  0.27021343  0.18915590     0.24160
C1923       C  0.98781943  0.27576800  0.20328480    -0.23840
C1924       C  0.95931852  0.26925103  0.18464371     0.19060
F1925       F  0.93010772  0.27276629  0.19744003    -0.13800
F1926       F  0.93307487  0.25590110  0.13447038    -0.16160
F1927       F  0.04539268  0.27617081  0.20575966    -0.16160
F1928       F  0.04804915  0.25288540  0.14643317    -0.13800
C1929       C  0.85880642  0.48290478  0.26117368     0.24220
C1930       C  0.87002640  0.51526391  0.25990362    -0.23890
C1931       C  0.84714008  0.53880386  0.25246053     0.19120
C1932       C  0.81464009  0.53049441  0.24555708     0.24160
C1933       C  0.80340466  0.49824090  0.24579661    -0.23840
C1934       C  0.82585982  0.47455418  0.25443776     0.19060
F1935       F  0.81593855  0.44326319  0.25602648    -0.13800
F1936       F  0.87986455  0.45924877  0.26763612    -0.16160
F1937       F  0.79414004  0.55429712  0.23762729    -0.16160
F1938       F  0.85642333  0.57031036  0.25107152    -0.13800
C1939       C  0.17440307  0.49997313  0.25210830     0.24220
C1940       C  0.15250248  0.52411279  0.25878578    -0.23890
C1941       C  0.16404123  0.55628540  0.25536975     0.19120
C1942       C  0.19617454  0.56362678  0.24541288     0.24160
C1943       C  0.21734591  0.53910212  0.23758196    -0.23840
C1944       C  0.20555599  0.50727542  0.24128474     0.19060
F1945       F  0.22412768  0.48261505  0.23361997    -0.13800
F1946       F  0.16537509  0.46850061  0.25532543    -0.16160
F1947       F  0.20648193  0.59476181  0.24318192    -0.16160
F1948       F  0.14407841  0.58061015  0.26064711    -0.13800
C1949       C  0.97763987  0.70228553  0.26572089     0.24220
C1950       C  0.00283033  0.72389747  0.25707872    -0.23890
C1951       C  0.03466966  0.71404850  0.26403972     0.19120
C1952       C  0.04095435  0.68258282  0.27542848     0.24160
C1953       C  0.01581076  0.65998994  0.28140511    -0.23840
C1954       C  0.98399305  0.67103849  0.27779061     0.19060
F1955       F  0.95874655  0.65011890  0.28230649    -0.13800
F1956       F  0.94659668  0.71092865  0.26105505    -0.16160
F1957       F  0.07194223  0.67318248  0.27769362    -0.16160
F1958       F  0.06013267  0.73454020  0.25958727    -0.13800
C1959       C  0.95392199  0.36196236  0.26838931     0.24220
C1960       C  0.98080801  0.37638539  0.28472937    -0.23890
C1961       C  0.00885845  0.35798478  0.28721661     0.19120
C1962       C  0.01189594  0.33010511  0.26921775     0.24160
C1963       C  0.98535455  0.31574938  0.25248969    -0.23840
C1964       C  0.95583649  0.33171639  0.25349482     0.19060
F1965       F  0.92891123  0.31867681  0.23928827    -0.13800
F1966       F  0.92652324  0.37862275  0.26424000    -0.16160
F1967       F  0.04148261  0.31750774  0.26741357    -0.16160
F1968       F  0.03584536  0.37070973  0.30184003    -0.13800
C1969       C  0.97592329  0.35530186  0.12765391     0.24220
C1970       C  0.97498425  0.37336596  0.09856657    -0.23890
C1971       C  0.95154465  0.39679261  0.09410009     0.19120
C1972       C  0.93183343  0.40336935  0.11929669     0.24160
C1973       C  0.94352091  0.39473793  0.15000619    -0.23840
C1974       C  0.95795413  0.36499694  0.15314684     0.19060
F1975       F  0.96304785  0.35138429  0.18254083    -0.13800
F1976       F  0.99588204  0.33040678  0.13244159    -0.16160
F1977       F  0.91150388  0.42808113  0.11539046    -0.16160
F1978       F  0.94785919  0.41339310  0.06598420    -0.13800
C1979       C  0.05796788  0.65664704  0.13384901     0.24220
C1980       C  0.06996262  0.62707907  0.12615228    -0.23890
C1981       C  0.06969463  0.61967408  0.09353276     0.19120
C1982       C  0.04417847  0.63055060  0.07398953     0.24160
C1983       C  0.02279612  0.65236554  0.08635838    -0.23840
C1984       C  0.03106042  0.66657774  0.11622793     0.19060
F1985       F  0.01304171  0.68975212  0.12850906    -0.13800
F1986       F  0.06406013  0.66877634  0.16339548    -0.16160
F1987       F  0.04052550  0.61991646  0.04362725    -0.16160
F1988       F  0.08802320  0.59577810  0.08333092    -0.13800
C1989       C  0.27613112  0.47422455  0.84432148     0.24220
C1990       C  0.26550685  0.50343089  0.85596280    -0.23890
C1991       C  0.24635774  0.52247609  0.83492950     0.19120
C1992       C  0.23769061  0.51284554  0.80400690     0.24160
C1993       C  0.24934220  0.48461964  0.79146856    -0.23840
C1994       C  0.26821942  0.46496065  0.81240013     0.19060
F1995       F  0.27923377  0.43693058  0.80181761    -0.13800
F1996       F  0.29346731  0.45440782  0.86383642    -0.16160
F1997       F  0.21952962  0.53287445  0.78565007    -0.16160
F1998       F  0.23592719  0.55133133  0.84411002    -0.13800
C1999       C  0.28043830  0.57133272  0.14371996     0.24220
C2000       C  0.29840578  0.54457709  0.13525715    -0.23890
C2001       C  0.30098064  0.51970101  0.15895721     0.19120
C2002       C  0.28275337  0.51884495  0.18656812     0.24160
C2003       C  0.26539685  0.54529896  0.19581251    -0.23840
C2004       C  0.26544892  0.57227053  0.17425511     0.19060
F2005       F  0.24989992  0.59895825  0.18212500    -0.13800
F2006       F  0.27626610  0.59583802  0.12229153    -0.16160
F2007       F  0.28272663  0.49165827  0.20502027    -0.16160
F2008       F  0.31985426  0.49423627  0.15452566    -0.13800
C2009       C  0.28034365  0.68841111  0.97863062     0.24220
C2010       C  0.28367046  0.66641784  0.00455734    -0.23890
C2011       C  0.27357967  0.67633678  0.03464520     0.19120
C2012       C  0.26061549  0.70715058  0.03841068     0.24160
C2013       C  0.25621016  0.72851576  0.01199687    -0.23840
C2014       C  0.26662181  0.71850680  0.98212542     0.19060
F2015       F  0.26352681  0.73786883  0.95583984    -0.13800
F2016       F  0.28831169  0.67962506  0.94887520    -0.16160
F2017       F  0.25181960  0.71592882  0.06786712    -0.16160
F2018       F  0.27430482  0.65544523  0.05997767    -0.13800
C2019       C  0.25539609  0.36343422  0.99308933     0.24220
C2020       C  0.26689896  0.38661133  0.97026000    -0.23890
C2021       C  0.26146084  0.37878231  0.93771237     0.19120
C2022       C  0.24632446  0.34865243  0.92896985     0.24160
C2023       C  0.23452061  0.32630869  0.95243400    -0.23840
C2024       C  0.23857218  0.33525532  0.98432869     0.19060
F2025       F  0.22979670  0.31450743  0.00813171    -0.13800
F2026       F  0.26110083  0.36687218  0.02500083    -0.16160
F2027       F  0.24434967  0.34076513  0.89766479    -0.16160
F2028       F  0.27181978  0.39943981  0.91445181    -0.13800
C2029       C  0.16837170  0.49471728  0.17105226     0.24220
C2030       C  0.14290129  0.51479732  0.16265348    -0.23890
C2031       C  0.14890064  0.54783479  0.15789293     0.19120
C2032       C  0.18062574  0.55900330  0.15500784     0.24160
C2033       C  0.20431650  0.53606070  0.15236344    -0.23840
C2034       C  0.19962511  0.50611487  0.16753577     0.19060
F2035       F  0.22339076  0.48449349  0.16910713    -0.13800
F2036       F  0.16315916  0.46322231  0.17888838    -0.16160
F2037       F  0.18641422  0.58966969  0.14466860    -0.16160
F2038       F  0.12446503  0.56849983  0.15376908    -0.13800
C2039       C  0.16077063  0.33424754  0.99260717     0.24220
C2040       C  0.14310849  0.34247600  0.96413004    -0.23890
C2041       C  0.15332298  0.36933683  0.94631280     0.19120
C2042       C  0.17340248  0.39209259  0.96144586     0.24160
C2043       C  0.18118793  0.38785430  0.99406246    -0.23840
C2044       C  0.17697856  0.35827018  0.00902059     0.19060
F2045       F  0.18645102  0.35336646  0.04009629    -0.13800
F2046       F  0.15559899  0.30614582  0.00886067    -0.16160
F2047       F  0.18349388  0.41894416  0.94556968    -0.16160
F2048       F  0.14075694  0.37513027  0.91654010    -0.13800
C2049       C  0.15392321  0.66377929  0.99742574     0.24220
C2050       C  0.14343263  0.63470314  0.01186962    -0.23890
C2051       C  0.11301220  0.62127030  0.00338234     0.19120
C2052       C  0.09417681  0.63575754  0.97968769     0.24160
C2053       C  0.10446404  0.66505434  0.96566636    -0.23840
C2054       C  0.13527274  0.67793478  0.97332138     0.19060
F2055       F  0.14534600  0.70649491  0.96027999    -0.13800
F2056       F  0.18357987  0.67681349  0.00479009    -0.16160
F2057       F  0.06434910  0.62285556  0.97302163    -0.16160
F2058       F  0.10226232  0.59293803  0.01638878    -0.13800
C2059       C  0.15639040  0.45680405  0.73343805     0.24220
C2060       C  0.14477457  0.48493003  0.71803017    -0.23890
C2061       C  0.16792466  0.50942115  0.71146071     0.19120
C2062       C  0.19975310  0.50813999  0.72402446     0.24160
C2063       C  0.21152753  0.48041463  0.74012286    -0.23840
C2064       C  0.18924692  0.45435244  0.74368487     0.19060
F2065       F  0.19865195  0.42729493  0.75946850    -0.13800
F2066       F  0.13507251  0.43303165  0.74195724    -0.16160
F2067       F  0.21728616  0.53600347  0.72408451    -0.16160
F2068       F  0.15802273  0.53770724  0.69842160    -0.13800
C2069       C  0.96091618  0.38011811  0.74554082     0.24220
C2070       C  0.98822187  0.40104017  0.74420809    -0.23890
C2071       C  0.01865632  0.38791455  0.75078524     0.19120
C2072       C  0.02151887  0.35496513  0.75901289     0.24160
C2073       C  0.99408301  0.33409112  0.76034010    -0.23840
C2074       C  0.96382101  0.34721586  0.75302932     0.19060
F2075       F  0.93683291  0.32799773  0.75320249    -0.13800
F2076       F  0.93108307  0.39168132  0.73968694    -0.16160
F2077       F  0.05124940  0.34344971  0.76539546    -0.16160
F2078       F  0.04555546  0.40725539  0.75076646    -0.13800
C2079       C  0.01602265  0.69178765  0.73843651     0.24220
C2080       C  0.04506641  0.67529950  0.74141596    -0.23890
C2081       C  0.07315349  0.69304424  0.75128872     0.19120
C2082       C  0.07207905  0.72550100  0.75928499     0.24160
C2083       C  0.04315973  0.74185041  0.75703438    -0.23840
C2084       C  0.01515909  0.72476521  0.74576119     0.19060
F2085       F  0.98683707  0.73984084  0.74187422    -0.13800
F2086       F  0.98827149  0.67584415  0.72965069    -0.16160
F2087       F  0.09966169  0.74116309  0.76905963    -0.16160
F2088       F  0.10208535  0.67878463  0.75362596    -0.13800
C2089       C  0.85947308  0.54684589  0.72984264     0.24220
C2090       C  0.87718252  0.57621764  0.72720855    -0.23890
C2091       C  0.86149764  0.60397969  0.73655903     0.19120
C2092       C  0.83018604  0.60212553  0.74935404     0.24160
C2093       C  0.81412013  0.57226367  0.75499240    -0.23840
C2094       C  0.82950486  0.54469477  0.74483633     0.19060
F2095       F  0.81605222  0.51513152  0.75000606    -0.13800
F2096       F  0.87360798  0.51917251  0.72232730    -0.16160
F2097       F  0.81607292  0.62956733  0.75748875    -0.16160
F2098       F  0.87772247  0.63273827  0.73591150    -0.13800
C2099       C  0.10944541  0.43102588  0.88265209     0.24220
C2100       C  0.11903558  0.44506470  0.85338317    -0.23890
C2101       C  0.15209008  0.45139350  0.85065250     0.19120
C2102       C  0.16839433  0.46314430  0.87779440     0.24160
C2103       C  0.15213039  0.46293585  0.90696738    -0.23840
C2104       C  0.12444965  0.44315800  0.91023789     0.19060
F2105       F  0.11001467  0.43892533  0.93878043    -0.13800
F2106       F  0.08012576  0.41619277  0.88528458    -0.16160
F2107       F  0.19778236  0.47779382  0.87480560    -0.16160
F2108       F  0.16484630  0.45692219  0.82146392    -0.13800
C2109       C  0.98301066  0.35053428  0.83101856     0.24220
C2110       C  0.01377390  0.34288500  0.84329578    -0.23890
C2111       C  0.03943245  0.36449020  0.83718756     0.19120
C2112       C  0.03241454  0.39669155  0.83264309     0.24160
C2113       C  0.00030463  0.40566383  0.83404023    -0.23840
C2114       C  0.97563095  0.38261968  0.82868098     0.19060
F2115       F  0.94434442  0.39081283  0.82499675    -0.13800
F2116       F  0.95828409  0.32845417  0.83096030    -0.16160
F2117       F  0.05634558  0.41890204  0.82811246    -0.16160
F2118       F  0.07030593  0.35601245  0.84342985    -0.13800
C2119       C  0.00160507  0.66210250  0.82446628     0.24220
C2120       C  0.03352410  0.66242648  0.83664743    -0.23890
C2121       C  0.04953950  0.69155521  0.84304252     0.19120
C2122       C  0.03159884  0.71906064  0.84478861     0.24160
C2123       C  0.99781133  0.71640768  0.84123730    -0.23840
C2124       C  0.98415540  0.69005572  0.82504324     0.19060
F2125       F  0.95188393  0.68831618  0.81875682    -0.13800
F2126       F  0.98656799  0.63428505  0.81516958    -0.16160
F2127       F  0.04545362  0.74444589  0.86015702    -0.16160
F2128       F  0.08110904  0.69240557  0.85247191    -0.13800
C2129       C  0.72680296  0.36748249  0.03380926     0.24220
C2130       C  0.72658337  0.37981744  0.00211670    -0.23890
C2131       C  0.73438706  0.35886538  0.97762670     0.19120
C2132       C  0.74457327  0.32760089  0.98464375     0.24160
C2133       C  0.74568989  0.31539292  0.01627818    -0.23840
C2134       C  0.73573693  0.33545387  0.04072512     0.19060
F2135       F  0.73580709  0.32437803  0.07147518    -0.13800
F2136       F  0.72072868  0.38703512  0.05828158    -0.16160
F2137       F  0.75388686  0.30934370  0.96031976    -0.16160
F2138       F  0.73473763  0.36970421  0.94677023    -0.13800
C2139       C  0.73491412  0.68008372  0.03917720     0.24220
C2140       C  0.73545220  0.66355324  0.00998495    -0.23890
C2141       C  0.75051639  0.67935720  0.98407009     0.19120
C2142       C  0.76447874  0.71067306  0.98772225     0.24160
C2143       C  0.76640783  0.72534776  0.01805562    -0.23840
C2144       C  0.75245262  0.70873827  0.04380249     0.19060
F2145       F  0.75347414  0.72183971  0.07327486    -0.13800
F2146       F  0.71954332  0.66669644  0.06466931    -0.16160
F2147       F  0.77633454  0.72658878  0.96176282    -0.16160
F2148       F  0.75292162  0.66419405  0.95591204    -0.13800
C2149       C  0.71274628  0.51364708  0.16849767     0.24220
C2150       C  0.71569824  0.48912911  0.14562907    -0.23890
C2151       C  0.73387387  0.46252081  0.15626058     0.19120
C2152       C  0.75033536  0.46233784  0.18709324     0.24160
C2153       C  0.75127482  0.48967383  0.20711940    -0.23840
C2154       C  0.73206859  0.51522325  0.19664014     0.19060
F2155       F  0.73194551  0.54243481  0.21382146    -0.13800
F2156       F  0.69302018  0.53853505  0.16210590    -0.16160
F2157       F  0.76674027  0.43601968  0.19660720    -0.16160
F2158       F  0.73777161  0.43792578  0.13619205    -0.13800
C2159       C  0.75248387  0.58252980  0.85370487     0.24220
C2160       C  0.75100362  0.55075828  0.86620579    -0.23890
C2161       C  0.75927184  0.52620559  0.84545074     0.19120
C2162       C  0.76971986  0.53286623  0.81421701     0.24160
C2163       C  0.77171205  0.56444189  0.80160928    -0.23840
C2164       C  0.76214417  0.58919034  0.82169324     0.19060
F2165       F  0.76270524  0.61997661  0.81049116    -0.13800
F2166       F  0.74611832  0.60725748  0.87283879    -0.14480
F2167       F  0.77758456  0.50787563  0.79616794    -0.16160
F2168       F  0.75842008  0.49516472  0.85602760    -0.13800
C2169       C  0.90630871  0.60333066  0.94059071     0.24220
C2170       C  0.87589616  0.58919514  0.93369531    -0.23890
C2171       C  0.86283301  0.59164966  0.90227169     0.19120
C2172       C  0.88313926  0.59931852  0.87719878     0.24160
C2173       C  0.91624328  0.60398286  0.88396607    -0.23840
C2174       C  0.92644433  0.61149805  0.91540589     0.19060
F2175       F  0.95754475  0.62057618  0.92216540    -0.13800
F2176       F  0.91839419  0.60434837  0.97108337    -0.16160
F2177       F  0.87166159  0.59602064  0.84662591    -0.16160
F2178       F  0.83194357  0.58185189  0.89531306    -0.13800
C2179       C  0.82321385  0.51351656  0.17681731     0.24220
C2180       C  0.81737127  0.48224486  0.16586275    -0.23890
C2181       C  0.84217468  0.46046122  0.17055961     0.19120
C2182       C  0.87385151  0.47269181  0.16990034     0.24160
C2183       C  0.87921404  0.50611840  0.16769897    -0.23840
C2184       C  0.85418322  0.52632649  0.17481972     0.19060
F2185       F  0.85884843  0.55865507  0.17645010    -0.13800
F2186       F  0.79890361  0.53447378  0.17766648    -0.16160
F2187       F  0.89861751  0.45238342  0.17016457    -0.16160
F2188       F  0.83616790  0.42866634  0.16616009    -0.13800
C2189       C  0.82524584  0.36546544  0.02258919     0.24220
C2190       C  0.83386800  0.38603476  0.04773453    -0.23890
C2191       C  0.86181399  0.37859502  0.06535135     0.19120
C2192       C  0.88662355  0.36477709  0.04907717     0.24160
C2193       C  0.88180849  0.35876290  0.01654735    -0.23840
C2194       C  0.85006171  0.35459208  0.00460562     0.19060
F2195       F  0.84340222  0.34378551  0.97464028    -0.13800
F2196       F  0.79580296  0.36710368  0.00841976    -0.16160
F2197       F  0.91358570  0.35490777  0.06454800    -0.16160
F2198       F  0.86591141  0.38791169  0.09602131    -0.13800
C2199       C  0.83175703  0.66555642  0.03210450     0.24220
C2200       C  0.84950884  0.65279024  0.05820954    -0.23890
C2201       C  0.87485549  0.67051676  0.07248944     0.19120
C2202       C  0.88485553  0.69940955  0.05806795     0.24160
C2203       C  0.87050211  0.70895946  0.02855731    -0.23840
C2204       C  0.84213889  0.69393197  0.01749220     0.19060
F2205       F  0.83019290  0.70155155  0.98786955    -0.13800
F2206       F  0.80768522  0.64795731  0.01765131    -0.16160
F2207       F  0.91262800  0.71413449  0.06883121    -0.16160
F2208       F  0.89164072  0.65843678  0.09814759    -0.13800
C2209       C  0.24583990  0.46881831  0.64682960     0.24220
C2210       C  0.24360592  0.50114149  0.63589395    -0.23890
C2211       C  0.25347031  0.52479817  0.65857576     0.19120
C2212       C  0.26621274  0.51698782  0.68919651     0.24160
C2213       C  0.26786413  0.48527086  0.70064497    -0.23840
C2214       C  0.25692212  0.46108446  0.67896268     0.19060
F2215       F  0.25651642  0.42993460  0.68900602    -0.13800
F2216       F  0.23703508  0.44473446  0.62679798    -0.16160
F2217       F  0.27495541  0.54141363  0.70892936    -0.16160
F2218       F  0.25059770  0.55656130  0.65162193    -0.13800
C2219       C  0.24791909  0.49916550  0.33244270     0.24220
C2220       C  0.24490188  0.52439124  0.35384309    -0.23890
C2221       C  0.25127904  0.55595129  0.34234233     0.19120
C2222       C  0.26109617  0.56178042  0.31045616     0.24160
C2223       C  0.26522869  0.53621172  0.28946900    -0.23840
C2224       C  0.25790154  0.50486532  0.30100709     0.19060
F2225       F  0.26095722  0.47919856  0.28221562    -0.13800
F2226       F  0.24259229  0.46834777  0.34261339    -0.16160
F2227       F  0.26743838  0.59240421  0.30032276    -0.16160
F2228       F  0.25006303  0.58092424  0.36248651    -0.13800
C2229       C  0.23097516  0.68170062  0.47750894     0.24220
C2230       C  0.23280159  0.65670884  0.45536767    -0.23890
C2231       C  0.25017371  0.66427579  0.42737517     0.19120
C2232       C  0.26469595  0.69570202  0.42233016     0.24160
C2233       C  0.26522275  0.71920412  0.44654338    -0.23840
C2234       C  0.24955749  0.71010114  0.47487252     0.19060
F2235       F  0.25261710  0.72829122  0.50119519    -0.13800
F2236       F  0.21418247  0.67690042  0.50471691    -0.16160
F2237       F  0.27938076  0.70262867  0.39439157    -0.16160
F2238       F  0.25417717  0.64122768  0.40560759    -0.13800
C2239       C  0.24636014  0.35218698  0.51127262     0.24220
C2240       C  0.23125529  0.37222736  0.48809842    -0.23890
C2241       C  0.22689412  0.35957702  0.45703425     0.19120
C2242       C  0.23697383  0.32828004  0.44975814     0.24160
C2243       C  0.25350116  0.30903310  0.47277338    -0.23840
C2244       C  0.25806114  0.32181970  0.50360976     0.19060
F2245       F  0.27300223  0.30421458  0.52701185    -0.13800
F2246       F  0.25166822  0.36308425  0.54135592    -0.16160
F2247       F  0.23118278  0.31704294  0.41986505    -0.16160
F2248       F  0.21458792  0.37838016  0.43305347    -0.13800
C2249       C  0.50550534  0.69797730  0.75993544     0.24220
C2250       C  0.52940988  0.67618238  0.77108362    -0.23890
C2251       C  0.56171938  0.68811994  0.76942236     0.19120
C2252       C  0.56920716  0.72017228  0.75759413     0.24160
C2253       C  0.54486288  0.74095682  0.74550709    -0.23840
C2254       C  0.51312135  0.72859022  0.74679917     0.19060
F2255       F  0.48850189  0.74666906  0.73554355    -0.13800
F2256       F  0.47363415  0.69000848  0.76141101    -0.16160
F2257       F  0.60036904  0.73091202  0.75810892    -0.16160
F2258       F  0.58607369  0.66910494  0.77945455    -0.13800
C2259       C  0.67589197  0.53285843  0.77576730     0.24220
C2260       C  0.65561642  0.55913738  0.77848218    -0.23890
C2261       C  0.66852460  0.58976271  0.76990093     0.19120
C2262       C  0.70032326  0.59367276  0.75844819     0.24160
C2263       C  0.71975282  0.56694826  0.75415331    -0.23840
C2264       C  0.70694361  0.53656081  0.76336041     0.19060
F2265       F  0.72411453  0.50992061  0.75947959    -0.13800
F2266       F  0.66428734  0.50269678  0.78239403    -0.16160
F2267       F  0.71174551  0.62355528  0.75057882    -0.16160
F2268       F  0.64952843  0.61562084  0.77032346    -0.13800
C2269       C  0.36386194  0.46726668  0.76833416     0.24220
C2270       C  0.37118845  0.49536548  0.78620000    -0.23890
C2271       C  0.34496679  0.51628906  0.78886913     0.19120
C2272       C  0.31511263  0.51182805  0.77202058     0.24160
C2273       C  0.30765982  0.48451303  0.75345072    -0.23840
C2274       C  0.33250528  0.46160524  0.75304763     0.19060
F2275       F  0.32703889  0.43426814  0.73648790    -0.13800
F2276       F  0.38738605  0.44612565  0.76397007    -0.16160
F2277       F  0.29381357  0.53575487  0.77278009    -0.16160
F2278       F  0.34871937  0.54308171  0.80667085    -0.13800
C2279       C  0.47261320  0.38330939  0.75595335     0.24220
C2280       C  0.50470682  0.39268411  0.76429887    -0.23890
C2281       C  0.52908337  0.37179753  0.75587195     0.19120
C2282       C  0.52221433  0.34380419  0.73854878     0.24160
C2283       C  0.49037343  0.33403789  0.73031003    -0.23840
C2284       C  0.46552669  0.35401016  0.73982908     0.19060
F2285       F  0.43434368  0.34537297  0.73304436    -0.13800
F2286       F  0.44830996  0.40309739  0.76191843    -0.16160
F2287       F  0.54721709  0.32597247  0.73026884    -0.16160
F2288       F  0.56044873  0.37945996  0.76316223    -0.13800
C2289       C  0.33119174  0.54186131  0.66790486     0.24220
C2290       C  0.33373643  0.52335327  0.64100726    -0.23890
C2291       C  0.34061316  0.49073903  0.64396019     0.19120
C2292       C  0.35257479  0.47892210  0.67296949     0.24160
C2293       C  0.35865699  0.50086768  0.69722917    -0.23840
C2294       C  0.34106406  0.52921069  0.69708689     0.19060
F2295       F  0.34248171  0.54926257  0.72226491    -0.13800
F2296       F  0.32226887  0.57290939  0.66556253    -0.16160
F2297       F  0.36592375  0.44962811  0.67451576    -0.16160
F2298       F  0.33898377  0.47165592  0.61835125    -0.13800
C2299       C  0.77627552  0.69189407  0.47699564     0.24220
C2300       C  0.77933481  0.66914166  0.50226834    -0.23890
C2301       C  0.77419582  0.67930772  0.53360321     0.19120
C2302       C  0.76614334  0.71144956  0.53922855     0.24160
C2303       C  0.76230613  0.73376908  0.51357843    -0.23840
C2304       C  0.76758808  0.72341656  0.48249892     0.19060
F2305       F  0.76482841  0.74413108  0.45717451    -0.13800
F2306       F  0.78094315  0.68326495  0.44638804    -0.16160
F2307       F  0.76190141  0.72071779  0.56966253    -0.16160
F2308       F  0.77542702  0.65790285  0.55848892    -0.13800
C2309       C  0.78528431  0.53719364  0.66598696     0.24220
C2310       C  0.78725324  0.56388051  0.64460395    -0.23890
C2311       C  0.77783603  0.59361951  0.65635143     0.19120
C2312       C  0.76693268  0.59626525  0.68814519     0.24160
C2313       C  0.76273321  0.56881215  0.70827822    -0.23840
C2314       C  0.77145586  0.53923895  0.69609843     0.19060
F2315       F  0.76612645  0.51174002  0.71325919    -0.13800
F2316       F  0.79264180  0.50767382  0.65574407    -0.16160
F2317       F  0.75928898  0.62547842  0.69877119    -0.16160
F2318       F  0.77704513  0.61966596  0.63635059    -0.13800
C2319       C  0.77344276  0.36872946  0.54632741     0.24220
C2320       C  0.77419554  0.38855461  0.51853340    -0.23890
C2321       C  0.76271738  0.37520162  0.48959710     0.19120
C2322       C  0.74970173  0.34340083  0.48883008     0.24160
C2323       C  0.74700495  0.32435139  0.51721262    -0.23840
C2324       C  0.75993280  0.33740840  0.54572483     0.19060
F2325       F  0.75865084  0.31998461  0.57348441    -0.13800
F2326       F  0.78393236  0.38066710  0.57488752    -0.16160
F2327       F  0.73989934  0.33159686  0.46016793    -0.16160
F2328       F  0.76204580  0.39359293  0.46241329    -0.13800
C2329       C  0.79157031  0.52394561  0.34415350     0.24220
C2330       C  0.78962250  0.49800519  0.36649746    -0.23890
C2331       C  0.77606544  0.46878622  0.35495729     0.19120
C2332       C  0.76384509  0.46620171  0.32290071     0.24160
C2333       C  0.76337565  0.49311444  0.30173632    -0.23840
C2334       C  0.77737944  0.52202083  0.31317222     0.19060
F2335       F  0.77487226  0.54947675  0.29549018    -0.13800
F2336       F  0.80279309  0.55312484  0.35413928    -0.16160
F2337       F  0.75053146  0.43778719  0.31317357    -0.16160
F2338       F  0.77164483  0.44359584  0.37560631    -0.13800
C2339       C  0.63437303  0.60056754  0.66794515     0.24220
C2340       C  0.60291042  0.60703068  0.65662784    -0.23890
C2341       C  0.59909725  0.61886743  0.62538098     0.19120
C2342       C  0.62041043  0.60861316  0.60310812     0.24160
C2343       C  0.64632768  0.58945481  0.61362818    -0.23840
C2344       C  0.65580435  0.58936449  0.64609140     0.19060
F2345       F  0.68277403  0.57448416  0.65688698    -0.13800
F2346       F  0.64044703  0.59520845  0.69965405    -0.16160
F2347       F  0.61314268  0.61353208  0.57153256    -0.16160
F2348       F  0.57082502  0.63152823  0.61506745    -0.13800
C2349       C  0.68563402  0.81617901  0.48563647     0.24220
C2350       C  0.66401256  0.81573215  0.51113646    -0.23890
C2351       C  0.67474242  0.80088102  0.54014006     0.19120
C2352       C  0.70527791  0.78618188  0.54292198     0.24160
C2353       C  0.72549986  0.78445227  0.51633248    -0.23840
C2354       C  0.71508104  0.80019815  0.48782476     0.19060
F2355       F  0.73282517  0.79899051  0.46123398    -0.13800
F2356       F  0.67625779  0.82889486  0.45678206    -0.16160
F2357       F  0.71420753  0.77193068  0.57114249    -0.16160
F2358       F  0.65441767  0.79786041  0.56489115    -0.13800
C2359       C  0.51771057  0.82318863  0.66207190     0.24220
C2360       C  0.54034697  0.81883321  0.63798831    -0.23890
C2361       C  0.56771015  0.80095719  0.64725698     0.19120
C2362       C  0.57143275  0.78742424  0.67898881     0.24160
C2363       C  0.54726766  0.79001810  0.70205821    -0.23840
C2364       C  0.52044071  0.80830760  0.69257209     0.19060
F2365       F  0.49555003  0.81065883  0.71257410    -0.13800
F2366       F  0.49080602  0.83999750  0.65511613    -0.16160
F2367       F  0.59811189  0.77065054  0.68671131    -0.16160
F2368       F  0.58969046  0.79456096  0.62512892    -0.13800
C2369       C  0.32442160  0.76611619  0.48172056     0.24220
C2370       C  0.31404270  0.76301202  0.44961247    -0.23890
C2371       C  0.33659219  0.77321506  0.42622370     0.19120
C2372       C  0.36847526  0.78495629  0.43510765     0.24160
C2373       C  0.37784295  0.78908478  0.46766749    -0.23840
C2374       C  0.35409977  0.78086057  0.49032426     0.19060
F2375       F  0.35980550  0.78620968  0.52197267    -0.13800
F2376       F  0.30519775  0.75617913  0.50573726    -0.16160
F2377       F  0.39002715  0.79165445  0.41200300    -0.16160
F2378       F  0.32801162  0.77119162  0.39476544    -0.13800
C2379       C  0.53765140  0.79417021  0.33882952     0.24220
C2380       C  0.51072307  0.78645759  0.35748968    -0.23890
C2381       C  0.48628443  0.76615478  0.34417465     0.19120
C2382       C  0.48857752  0.75423640  0.31300900     0.24160
C2383       C  0.51560631  0.76196000  0.29448263    -0.23840
C2384       C  0.54022424  0.78190617  0.30800141     0.19060
F2385       F  0.56698376  0.78946168  0.29123291    -0.13800
F2386       F  0.56276227  0.81179396  0.35152086    -0.16160
F2387       F  0.46414899  0.73545736  0.30072489    -0.16160
F2388       F  0.46101487  0.75632340  0.36215171    -0.13800
C2389       C  0.40350702  0.66506505  0.45537872     0.24220
C2390       C  0.40090181  0.68424848  0.48229181    -0.23890
C2391       C  0.37071456  0.69665298  0.48898810     0.19120
C2392       C  0.34315747  0.68479783  0.47332859     0.24160
C2393       C  0.34586579  0.65756208  0.45499119    -0.23840
C2394       C  0.37528329  0.65344703  0.43994906     0.19060
F2395       F  0.37740384  0.63058253  0.41754491    -0.13800
F2396       F  0.43258820  0.65544382  0.44595562    -0.16160
F2397       F  0.31448084  0.69175072  0.48549711    -0.16160
F2398       F  0.36699821  0.71612834  0.51409240    -0.13800
C2399       C  0.53731343  0.66997959  0.68104025     0.24220
C2400       C  0.50364661  0.67019105  0.68248070    -0.23890
C2401       C  0.48777763  0.69896242  0.68198295     0.19120
C2402       C  0.50468835  0.72665847  0.67342643     0.24160
C2403       C  0.53538002  0.72359049  0.66047730    -0.23840
C2404       C  0.55376108  0.69758850  0.67066704     0.19060
F2405       F  0.58509687  0.69607750  0.66267472    -0.13800
F2406       F  0.55352652  0.64289215  0.68762107    -0.16160
F2407       F  0.48767227  0.75368433  0.66874039    -0.16160
F2408       F  0.45566345  0.69980689  0.68699662    -0.13800
C2409       C  0.68137873  0.71081220  0.52037595     0.24220
C2410       C  0.66243578  0.70700092  0.54791362    -0.23890
C2411       C  0.66763007  0.67995449  0.56750659     0.19120
C2412       C  0.67868939  0.65274674  0.55310345     0.24160
C2413       C  0.68393468  0.65381864  0.52019926    -0.23840
C2414       C  0.69018674  0.68339081  0.50522943     0.19060
F2415       F  0.69891133  0.68548811  0.47419963    -0.13800
F2416       F  0.68016646  0.73777650  0.50184106    -0.16160
F2417       F  0.68231525  0.62524424  0.57011770    -0.16160
F2418       F  0.65513446  0.67753564  0.59709713    -0.13800
C2419       C  0.66366204  0.52129234  0.25019946     0.24220
C2420       C  0.64996853  0.49573829  0.23240103    -0.23890
C2421       C  0.66758832  0.46742319  0.23088081     0.19120
C2422       C  0.69753787  0.46445498  0.24666076     0.24160
C2423       C  0.71242025  0.49055110  0.26252274    -0.23840
C2424       C  0.69470783  0.51882844  0.26492296     0.19060
F2425       F  0.70812859  0.54467216  0.28000151    -0.13800
F2426       F  0.64672076  0.54814778  0.25413362    -0.16160
F2427       F  0.71319071  0.43652314  0.24460389    -0.16160
F2428       F  0.65500417  0.44176067  0.21477660    -0.13800
C2429       C  0.35650372  0.56808551  0.21880089     0.24220
C2430       C  0.37411154  0.53969479  0.22051850    -0.23890
C2431       C  0.36018567  0.51291115  0.23650129     0.19120
C2432       C  0.32960467  0.51435415  0.25013211     0.24160
C2433       C  0.31147227  0.54256547  0.24767210    -0.23840
C2434       C  0.32581516  0.56952412  0.23209045     0.19060
F2435       F  0.30986148  0.59741942  0.22959301    -0.13800
F2436       F  0.36977309  0.59509266  0.20529588    -0.16160
F2437       F  0.31773600  0.48768226  0.26515477    -0.16160
F2438       F  0.37716909  0.48579223  0.24080006    -0.13800
C2439       C  0.44563997  0.35919639  0.20287479     0.24220
C2440       C  0.47069157  0.37319617  0.18426014    -0.23890
C2441       C  0.49716763  0.35301052  0.18013728     0.19120
C2442       C  0.50169280  0.32465403  0.19900986     0.24160
C2443       C  0.47754588  0.31149476  0.21895884    -0.23840
C2444       C  0.44844099  0.32850510  0.21865070     0.19060
F2445       F  0.42304727  0.31624005  0.23507784    -0.13800
F2446       F  0.41967190  0.37685380  0.20873482    -0.16160
F2447       F  0.53076795  0.31076617  0.19877346    -0.16160
F2448       F  0.52241405  0.36451898  0.16296715    -0.13800
C2449       C  0.50225106  0.67083059  0.21902800     0.24220
C2450       C  0.53149308  0.65532860  0.22628684    -0.23890
C2451       C  0.55489466  0.67297402  0.24461774     0.19120
C2452       C  0.54932420  0.70416024  0.25566922     0.24160
C2453       C  0.52007495  0.71952782  0.24880194    -0.23840
C2454       C  0.49672132  0.70232507  0.22988873     0.19060
F2455       F  0.46779949  0.71548471  0.22303147    -0.13800
F2456       F  0.47790442  0.65452414  0.20351636    -0.16160
F2457       F  0.57285204  0.71943401  0.27330264    -0.16160
F2458       F  0.58281763  0.65890991  0.25380170    -0.13800
C2459       C  0.37641460  0.49920161  0.38083250     0.24220
C2460       C  0.37037458  0.53212647  0.38412532    -0.23890
C2461       C  0.36159369  0.55048015  0.35695768     0.19120
C2462       C  0.36335884  0.53698898  0.32688566     0.24160
C2463       C  0.37557981  0.50598777  0.32502447    -0.23840
C2464       C  0.37155044  0.48542661  0.35125814     0.19060
F2465       F  0.37572037  0.45349808  0.34860571    -0.13800
F2466       F  0.38171965  0.47980459  0.40692900    -0.16160
F2467       F  0.36070778  0.55624883  0.30046634    -0.16160
F2468       F  0.35079503  0.58066180  0.35969336    -0.13800
C2469       C  0.57491273  0.61743362  0.37042683     0.24220
C2470       C  0.57128568  0.58512633  0.37987857    -0.23890
C2471       C  0.56656708  0.57707637  0.41220116     0.19120
C2472       C  0.55772845  0.60071838  0.43290909     0.24160
C2473       C  0.55447904  0.63233234  0.42131840    -0.23840
C2474       C  0.56506182  0.64085677  0.39047201     0.19060
F2475       F  0.56335282  0.67133074  0.37844719    -0.13800
F2476       F  0.58195420  0.62585833  0.33976165    -0.16160
F2477       F  0.55056773  0.59230552  0.46346641    -0.16160
F2478       F  0.56604604  0.54600875  0.42260478    -0.13800
C2479       C  0.67590535  0.45686096  0.36319684     0.24220
C2480       C  0.67023860  0.45262779  0.39593125    -0.23890
C2481       C  0.64929807  0.42764158  0.40620182     0.19120
C2482       C  0.62616060  0.41574061  0.38462246     0.24160
C2483       C  0.62615109  0.42747484  0.35309870    -0.23840
C2484       C  0.65349176  0.44392643  0.34137768     0.19060
F2485       F  0.65452046  0.45387886  0.31026817    -0.13800
F2486       F  0.69811543  0.47889709  0.35264527    -0.16160
F2487       F  0.60064248  0.39801764  0.39555561    -0.16160
F2488       F  0.64652002  0.42023747  0.43781283    -0.13800
C2489       C  0.50943768  0.27872253  0.63187597     0.24220
C2490       C  0.48121298  0.26308272  0.61974583    -0.23890
C2491       C  0.45355488  0.26374877  0.63879335     0.19120
C2492       C  0.45368120  0.27988954  0.66790856     0.24160
C2493       C  0.48202231  0.29419202  0.68104914    -0.23840
C2494       C  0.50994674  0.29377766  0.66218665     0.19060
F2495       F  0.53810178  0.30725318  0.67318099    -0.13800
F2496       F  0.53628281  0.28028847  0.61416627    -0.16160
F2497       F  0.42612221  0.27973161  0.68456877    -0.16160
F2498       F  0.42555525  0.24885361  0.62890183    -0.13800
C2499       C  0.46620780  0.25598981  0.32498292     0.24220
C2500       C  0.49703651  0.26088836  0.33946838    -0.23890
C2501       C  0.52217266  0.27212004  0.31964887     0.19120
C2502       C  0.51659661  0.27940499  0.28696716     0.24160
C2503       C  0.48581600  0.27519530  0.27252163    -0.23840
C2504       C  0.46075487  0.26278559  0.29187743     0.19060
F2505       F  0.43076055  0.25786262  0.27881274    -0.13800
F2506       F  0.44097534  0.24652950  0.34315358    -0.16160
F2507       F  0.54161093  0.29033756  0.26920461    -0.16160
F2508       F  0.55234142  0.27716551  0.33235008    -0.13800
C2509       C  0.33306452  0.24426158  0.42286704     0.24220
C2510       C  0.35128293  0.22849751  0.44726115    -0.23890
C2511       C  0.33698996  0.22551525  0.47753554     0.19120
C2512       C  0.31077474  0.24440037  0.48503690     0.24160
C2513       C  0.29347144  0.26162233  0.46108951    -0.23840
C2514       C  0.30446262  0.26019010  0.42958350     0.19060
F2515       F  0.28787415  0.27491802  0.40529305    -0.13800
F2516       F  0.34529977  0.24780922  0.39323734    -0.16160
F2517       F  0.30235083  0.24590319  0.51603676    -0.16160
F2518       F  0.35321113  0.21057215  0.50200577    -0.13800
C2519       C  0.65092251  0.26821041  0.47998117     0.24220
C2520       C  0.63150682  0.26099771  0.50643108    -0.23890
C2521       C  0.64627591  0.26324863  0.53717285     0.19120
C2522       C  0.67918975  0.27323383  0.54103896     0.24160
C2523       C  0.69781853  0.28242509  0.51435033    -0.23840
C2524       C  0.68290256  0.27956612  0.48381035     0.19060
F2525       F  0.69943379  0.28682361  0.45707626    -0.13800
F2526       F  0.63789195  0.26658235  0.44983185    -0.16160
F2527       F  0.69272102  0.27461680  0.57094268    -0.16160
F2528       F  0.62846712  0.25757539  0.56347491    -0.13800
C2529       C  0.41510039  0.37585785  0.35713501     0.24220
C2530       C  0.44450789  0.36042286  0.36280255    -0.23890
C2531       C  0.45671239  0.34253161  0.33789918     0.19120
C2532       C  0.44430468  0.34681874  0.30693775     0.24160
C2533       C  0.42607262  0.37398706  0.30135433    -0.23840
C2534       C  0.40413178  0.38006841  0.32523844     0.19060
F2535       F  0.37864980  0.39872910  0.31828614    -0.13800
F2536       F  0.39978976  0.38999871  0.38104429    -0.16160
F2537       F  0.46181173  0.33577791  0.28315599    -0.16160
F2538       F  0.48431450  0.32646816  0.34179168    -0.13800
C2539       C  0.33747904  0.37542683  0.54476537     0.24220
C2540       C  0.36721665  0.38343252  0.53101975    -0.23890
C2541       C  0.39036872  0.40144594  0.54960083     0.19120
C2542       C  0.38028518  0.41656231  0.57682874     0.24160
C2543       C  0.34725489  0.42102268  0.57749955    -0.23840
C2544       C  0.32830452  0.39328766  0.57088478     0.19060
F2545       F  0.29774081  0.39050371  0.58126773    -0.13800
F2546       F  0.31682114  0.35371355  0.53108641    -0.16160
F2547       F  0.40104504  0.43676799  0.59278991    -0.16160
F2548       F  0.42067023  0.40793138  0.53973116    -0.13800
C2549       C  0.44755801  0.39940794  0.66023550     0.24220
C2550       C  0.48022773  0.40749999  0.66540649    -0.23890
C2551       C  0.50402476  0.38717126  0.65532646     0.19120
C2552       C  0.49553080  0.36409734  0.63318499     0.24160
C2553       C  0.46327310  0.36015922  0.62326051    -0.23840
C2554       C  0.43896758  0.37487129  0.63942981     0.19060
F2555       F  0.40754528  0.36997074  0.63046069    -0.13800
F2556       F  0.42440919  0.41766340  0.67203937    -0.16160
F2557       F  0.51910253  0.35010589  0.61709784    -0.16160
F2558       F  0.53582701  0.39353572  0.66170588    -0.13800
C2559       C  0.60932014  0.35520988  0.56289724     0.24220
C2560       C  0.57893438  0.36834446  0.56619388    -0.23890
C2561       C  0.57801629  0.39884932  0.57932902     0.19120
C2562       C  0.60257321  0.42057848  0.57111116     0.24160
C2563       C  0.62911766  0.40930245  0.55523138    -0.23840
C2564       C  0.63455294  0.37634791  0.55482658     0.19060
F2565       F  0.66188004  0.36505036  0.54275383    -0.13800
F2566       F  0.61166925  0.32357499  0.55687050    -0.16160
F2567       F  0.59910423  0.45243500  0.57555785    -0.16160
F2568       F  0.54998917  0.41006018  0.58984191    -0.13800
loop_ 
_geom_bond_atom_site_label_1 
_geom_bond_atom_site_label_2 
_geom_bond_distance 
_geom_bond_site_symmetry_2 
_ccdc_geom_bond_type 
N1            N2   1.315       .  A
N1            N7   1.307       .  A
N1          Mn30   2.129       .  S
N2            C9   1.339       .  A
N3            N5   1.312       .  A
N3            N4   1.312       .  A
N3          Mn19   2.161       .  S
N4           C10   1.345       .  A
N5            N6   1.312       .  A
N5          Mn30   2.138       .  S
N6           C10   1.336       .  A
N7            N8   1.312       .  A
N7          Mn19   2.183       .  S
N8            C9   1.350       .  A
C9         C2553   1.432       .  S
C10        C2540   1.459       .  S
N11          N17   1.315       .  A
N11          N12   1.310       .  A
N11         Mn41   2.166       .  S
N12          C20   1.341       .  A
N13          N14   1.317       .  A
N13          N15   1.312       .  A
N13         Mn19   2.147       .  S
N14          C21   1.342       .  A
N15          N16   1.316       .  A
N15         Mn41   2.160       .  S
N16          C21   1.346       .  A
N17          N18   1.322       .  A
N17         Mn19   2.163       .  S
N18          C20   1.346       .  A
Mn19        Cl43   2.532       .  S
C20        C2530   1.466       .  S
C21        C2560   1.463       .  S
N22          N23   1.292       .  A
N22          N28   1.307       .  A
N22         Mn30   2.019       .  S
N23          C31   1.316       .  A
N24          N26   1.313       .  A
N24          N25   1.347       .  A
N24         Mn42   2.322       .  S
N25          C32   1.382       .  A
N26          N27   1.305       .  A
N26         Mn30   2.142       .  S
N27          C32   1.329       .  A
N28          N29   1.346       .  A
N28         Mn42   2.356       .  S
N29          C31   1.387       .  A
Mn30        Cl43   2.477       .  S
C31        C2510   1.482       .  S
C32        C2490   1.517       .  S
N33          N34   1.307       .  A
N33          N39   1.315       .  A
N33         Mn41   2.122       .  S
N34          C44   1.331       .  A
N35          N36   1.339       .  A
N35          N37   1.320       .  A
N35         Mn42   2.311       .  S
N36          C45   1.374       .  A
N37          N38   1.314       .  A
N37         Mn41   2.182       .  S
N38          C45   1.343       .  A
N39          N40   1.344       .  A
N39         Mn42   2.333       .  S
N40          C44   1.380       .  A
Mn41        Cl43   2.486       .  S
Mn42        Cl43   2.536       .  S
C44        C2520   1.500       .  S
C45        C2500   1.508       .  S
N46          N47   1.313       .  A
N46          N52   1.307       .  A
N46         Mn75   2.151       .  S
N47          C54   1.352       .  A
N48          N50   1.304       .  A
N48          N49   1.311       .  A
N48         Mn64   2.105       .  S
N49          C55   1.338       .  A
N50          N51   1.317       .  A
N50         Mn75   2.183       .  S
N51          C55   1.358       .  A
N52          N53   1.320       .  A
N52         Mn64   2.189       .  S
N53          C54   1.354       .  A
C54        C2533   1.475       .  S
C55        C2483   1.443       .  S
N56          N62   1.322       .  A
N56          N57   1.342       .  A
N56         Mn86   2.343       .  S
N57          C65   1.377       .  A
N58          N59   1.290       .  A
N58          N60   1.305       .  A
N58         Mn64   1.973       .  S
N59          C66   1.300       .  A
N60          N61   1.361       .  A
N60         Mn86   2.422       .  S
N61          C66   1.402       .  A
N62          N63   1.303       .  A
N62         Mn64   2.116       .  S
N63          C65   1.329       .  A
Mn64        Cl88   2.474       .  S
C65        C2420   1.491       .  S
C66        C2440   1.514       .  S
N67          N68   1.317       .  A
N67          N73   1.310       .  A
N67         Mn75   2.156       .  S
N68          C76   1.352       .  A
N69          N71   1.305       .  A
N69          N70   1.310       .  A
N69         Mn87   2.105       .  S
N70          C77   1.338       .  A
N71          N72   1.312       .  A
N71         Mn75   2.156       .  S
N72          C77   1.355       .  A
N73          N74   1.308       .  A
N73         Mn87   2.158       .  S
N74          C76   1.349       .  A
Mn75        Cl88   2.552       .  S
C76        C2470   1.454       .  S
C77        C2463   1.454       .  S
N78          N79   1.338       .  A
N78          N84   1.318       .  A
N78         Mn86   2.287       .  S
N79          C89   1.376       .  A
N80          N81   1.310       .  A
N80          N82   1.315       .  A
N80         Mn87   2.091       .  S
N81          C90   1.328       .  A
N82          N83   1.350       .  A
N82         Mn86   2.395       .  S
N83          C90   1.387       .  A
N84          N85   1.311       .  A
N84         Mn87   2.184       .  S
N85          C89   1.335       .  A
Mn86        Cl88   2.554       .  S
Mn87        Cl88   2.469       .  S
C89        C2430   1.494       .  S
C90        C2450   1.520       .  S
N91          N92   1.305       .  A
N91          N97   1.315       .  A
N91        Mn120   2.148       .  S
N92          C99   1.333       .  A
N93          N95   1.308       .  A
N93          N94   1.319       .  A
N93        Mn109   2.174       .  S
N94         C100   1.357       .  A
N95          N96   1.303       .  A
N95        Mn120   2.125       .  S
N96         C100   1.338       .  A
N97          N98   1.326       .  A
N97        Mn109   2.192       .  S
N98          C99   1.355       .  A
C99        C2390   1.461       .  S
C100       C2403   1.452       .  S
N101        N107   1.308       .  A
N101        N102   1.302       .  A
N101       Mn131   2.146       .  S
N102        C110   1.339       .  A
N103        N104   1.321       .  A
N103        N105   1.309       .  A
N103       Mn109   2.174       .  S
N104        C111   1.355       .  A
N105        N106   1.304       .  A
N105       Mn131   2.122       .  S
N106        C111   1.337       .  A
N107        N108   1.326       .  A
N107       Mn109   2.187       .  S
N108        C110   1.364       .  A
Mn109      Cl133   2.553       .  S
C110       C2410   1.470       .  S
C111       C2473   1.457       .  S
N112        N113   1.308       .  A
N112        N118   1.311       .  A
N112       Mn120   2.125       .  S
N113        C121   1.332       .  A
N114        N116   1.313       .  A
N114        N115   1.353       .  A
N114       Mn132   2.389       .  S
N115        C122   1.388       .  A
N116        N117   1.306       .  A
N116       Mn120   2.102       .  S
N117        C122   1.333       .  A
N118        N119   1.351       .  A
N118       Mn132   2.372       .  S
N119        C121   1.386       .  A
Mn120      Cl133   2.531       .  S
C121       C2360   1.532       .  S
C122       C2373   1.534       .  S
N123        N124   1.307       .  A
N123        N129   1.314       .  A
N123       Mn131   2.096       .  S
N124        C134   1.333       .  A
N125        N126   1.349       .  A
N125        N127   1.308       .  A
N125       Mn132   2.346       .  S
N126        C135   1.387       .  A
N127        N128   1.304       .  A
N127       Mn131   2.093       .  S
N128        C135   1.325       .  A
N129        N130   1.339       .  A
N129       Mn132   2.332       .  S
N130        C134   1.376       .  A
Mn131      Cl133   2.474       .  S
Mn132      Cl133   2.474       .  S
C134       C2380   1.485       .  S
C135       C2350   1.509       .  S
N136        N137   1.317       .  A
N136        N142   1.314       .  A
N136       Mn165   2.166       .  S
N137        C144   1.344       .  A
N138        N140   1.313       .  A
N138        N139   1.319       .  A
N138       Mn154   2.188       .  S
N139        C145   1.345       .  A
N140        N141   1.312       .  A
N140       Mn165   2.130       .  S
N141        C145   1.333       .  A
N142        N143   1.313       .  A
N142       Mn154   2.152       .  S
N143        C144   1.345       .  A
C144       C2480   1.455       .  S
C145       C2413   1.452       .  S
N146        N152   1.308       .  A
N146        N147   1.322       .  A
N146       Mn176   2.193       .  S
N147        C155   1.355       .  A
N148        N149   1.317       .  A
N148        N150   1.310       .  A
N148       Mn154   2.189       .  S
N149        C156   1.356       .  A
N150        N151   1.309       .  A
N150       Mn176   2.115       .  S
N151        C156   1.334       .  A
N152        N153   1.308       .  A
N152       Mn154   2.133       .  S
N153        C155   1.342       .  A
Mn154      Cl178   2.537       .  S
C155       C2343   1.461       .  S
C156       C2563   1.435       .  S
N157        N158   1.312       .  A
N157        N163   1.319       .  A
N157       Mn165   2.175       .  S
N158        C166   1.339       .  A
N159        N161   1.314       .  A
N159        N160   1.350       .  A
N159       Mn177   2.372       .  S
N160        C167   1.387       .  A
N161        N162   1.303       .  A
N161       Mn165   2.076       .  S
N162        C167   1.322       .  A
N163        N164   1.338       .  A
N163       Mn177   2.295       .  S
N164        C166   1.370       .  A
Mn165      Cl178   2.523       .  S
C166       C2300   1.498       .  S
C167       C2330   1.504       .  S
N168        N169   1.309       .  A
N168        N174   1.317       .  A
N168       Mn176   2.144       .  S
N169        C179   1.334       .  A
N170        N171   1.349       .  A
N170        N172   1.311       .  A
N170       Mn177   2.363       .  S
N171        C180   1.387       .  A
N172        N173   1.301       .  A
N172       Mn176   2.059       .  S
N173        C180   1.322       .  A
N174        N175   1.341       .  A
N174       Mn177   2.311       .  S
N175        C179   1.376       .  A
Mn176      Cl178   2.490       .  S
Mn177      Cl178   2.548       .  S
C179       C2320   1.497       .  S
C180       C2310   1.501       .  S
N181        N182   1.309       .  A
N181        N187   1.307       .  A
N181       Mn210   2.121       .  S
N182        C189   1.335       .  A
N183        N185   1.313       .  A
N183        N184   1.323       .  A
N183       Mn199   2.211       .  S
N184        C190   1.356       .  A
N185        N186   1.309       .  A
N185       Mn210   2.129       .  S
N186        C190   1.340       .  A
N187        N188   1.319       .  A
N187       Mn199   2.179       .  S
N188        C189   1.354       .  A
C189       C2550   1.444       .  S
C190       C2340   1.466       .  S
N191        N197   1.311       .  A
N191        N192   1.307       .  A
N191       Mn221   2.127       .  S
N192        C200   1.332       .  A
N193        N194   1.318       .  A
N193        N195   1.313       .  A
N193       Mn199   2.184       .  S
N194        C201   1.358       .  A
N195        N196   1.301       .  A
N195       Mn221   2.133       .  S
N196        C201   1.334       .  A
N197        N198   1.314       .  A
N197       Mn199   2.161       .  S
N198        C200   1.346       .  A
Mn199      Cl223   2.490       .  S
C200       C2400   1.425       .  S
C201       C2293   1.441       .  S
N202        N203   1.307       .  A
N202        N208   1.311       .  A
N202       Mn210   2.088       .  S
N203        C211   1.331       .  A
N204        N206   1.315       .  A
N204        N205   1.346       .  A
N204       Mn222   2.338       .  S
N205        C212   1.381       .  A
N206        N207   1.307       .  A
N206       Mn210   2.136       .  S
N207        C212   1.332       .  A
N208        N209   1.345       .  A
N208       Mn222   2.354       .  S
N209        C211   1.382       .  A
Mn210      Cl223   2.548       .  S
C211       C2260   1.502       .  S
C212       C2280   1.513       .  S
N213        N214   1.311       .  A
N213        N219   1.304       .  A
N213       Mn221   2.112       .  S
N214        C224   1.335       .  A
N215        N216   1.357       .  A
N215        N217   1.314       .  A
N215       Mn222   2.421       .  S
N216        C225   1.391       .  A
N217        N218   1.309       .  A
N217       Mn221   2.107       .  S
N218        C225   1.334       .  A
N219        N220   1.359       .  A
N219       Mn222   2.416       .  S
N220        C224   1.395       .  A
Mn221      Cl223   2.587       .  S
Mn222      Cl223   2.408       .  S
C224       C2270   1.563       .  S
C225       C2250   1.555       .  S
N226        N227   1.321       .  A
N226        N232   1.312       .  A
N226       Mn255   2.155       .  S
N227        C234   1.351       .  A
N228        N230   1.299       .  A
N228        N229   1.294       .  A
N228       Mn244   2.079       .  S
N229        C235   1.329       .  A
N230        N231   1.324       .  A
N230       Mn255   2.151       .  S
N231        C235   1.357       .  A
N232        N233   1.312       .  A
N232       Mn244   2.167       .  S
N233        C234   1.346       .  A
C234       C2543   1.479       .  S
C235       C2460   1.424       .  S
N236        N242   1.313       .  A
N236        N237   1.338       .  A
N236       Mn266   2.284       .  S
N237        C245   1.373       .  A
N238        N239   1.308       .  A
N238        N240   1.309       .  A
N238       Mn244   2.073       .  S
N239        C246   1.326       .  A
N240        N241   1.349       .  A
N240       Mn266   2.375       .  S
N241        C246   1.388       .  A
N242        N243   1.314       .  A
N242       Mn244   2.179       .  S
N243        C245   1.341       .  A
Mn244      Cl268   2.445       .  S
C245       C2220   1.500       .  S
C246       C2240   1.512       .  S
N247        N248   1.310       .  A
N247        N253   1.315       .  A
N247       Mn255   2.141       .  S
N248        C256   1.345       .  A
N249        N251   1.308       .  A
N249        N250   1.308       .  A
N249       Mn267   2.128       .  S
N250        C257   1.334       .  A
N251        N252   1.312       .  A
N251       Mn255   2.137       .  S
N252        C257   1.342       .  A
N253        N254   1.320       .  A
N253       Mn267   2.210       .  S
N254        C256   1.356       .  A
Mn255      Cl268   2.573       .  S
C256       C2393   1.463       .  S
C257       C2290   1.422       .  S
N258        N259   1.354       .  A
N258        N264   1.321       .  A
N258       Mn266   2.399       .  S
N259        C269   1.388       .  A
N260        N261   1.298       .  A
N260        N262   1.308       .  A
N260       Mn267   2.054       .  S
N261        C270   1.323       .  A
N262        N263   1.355       .  A
N262       Mn266   2.382       .  S
N263        C270   1.389       .  A
N264        N265   1.308       .  A
N264       Mn267   2.148       .  S
N265        C269   1.333       .  A
Mn266      Cl268   2.503       .  S
Mn267      Cl268   2.528       .  S
C269       C2210   1.547       .  S
C270       C2230   1.524       .  S
N271        N272   1.312       .  A
N271        N277   1.316       .  A
N271       Mn300   2.169       .  S
N272        C279   1.344       .  A
N273        N275   1.307       .  A
N273        N274   1.326       .  A
N273       Mn289   2.175       .  S
N274        C280   1.354       .  A
N275        N276   1.307       .  A
N275       Mn300   2.139   1_554  S
N276        C280   1.343       .  A
N277        N278   1.323       .  A
N277       Mn289   2.197   1_556  S
N278        C279   1.355       .  A
C279       C2170   1.467       .  S
C280       C2190   1.471       .  S
N281        N287   1.311       .  A
N281        N282   1.309       .  A
N281       Mn311   2.163       .  S
N282        C290   1.351       .  A
N283        N284   1.321       .  A
N283        N285   1.305       .  A
N283       Mn289   2.187       .  S
N284        C291   1.359       .  A
N285        N286   1.308       .  A
N285       Mn311   2.117       .  S
N286        C291   1.337       .  A
N287        N288   1.310       .  A
N287       Mn289   2.163       .  S
N288        C290   1.352       .  A
Mn289      Cl313   2.527       .  S
C290       C2180   1.453       .  S
C291       C2200   1.442       .  S
N292        N293   1.312       .  A
N292        N298   1.316       .  A
N292       Mn300   2.166       .  S
N293        C301   1.339       .  A
N294        N296   1.315       .  A
N294        N295   1.347       .  A
N294       Mn312   2.365   1_556  S
N295        C302   1.384       .  A
N296        N297   1.311       .  A
N296       Mn300   2.125       .  S
N297        C302   1.336       .  A
N298        N299   1.339   1_556  A
N298       Mn312   2.296   1_556  S
N299        C301   1.373   1_554  A
Mn300      Cl313   2.514   1_556  S
C301       C2130   1.500   1_556  S
C302       C2160   1.518       .  S
N303        N304   1.294       .  A
N303        N309   1.314       .  A
N303       Mn311   2.046       .  S
N304        C314   1.325       .  A
N305        N306   1.357       .  A
N305        N307   1.298       .  A
N305       Mn312   2.398       .  S
N306        C315   1.396       .  A
N307        N308   1.299       .  A
N307       Mn311   2.096       .  S
N308        C315   1.325       .  A
N309        N310   1.347   1_554  A
N309       Mn312   2.373       .  S
N310        C314   1.384   1_556  A
Mn311      Cl313   2.542       .  S
Mn312      Cl313   2.466       .  S
C314       C2140   1.494       .  S
C315       C2150   1.543       .  S
N316        N317   1.315       .  A
N316        N322   1.308       .  A
N316       Mn345   2.175   1_655  S
N317        C324   1.352       .  A
N318        N320   1.311       .  A
N318        N319   1.307       .  A
N318       Mn334   2.115       .  S
N319        C325   1.330       .  A
N320        N321   1.320   1_655  A
N320       Mn345   2.198   1_655  S
N321        C325   1.351   1_455  A
N322        N323   1.318       .  A
N322       Mn334   2.173       .  S
N323        C324   1.354       .  A
C324       C2173   1.470       .  S
C325       C2113   1.445   1_655  S
N326        N332   1.321       .  A
N326        N327   1.335   1_655  A
N326       Mn356   2.265   1_655  S
N327        C335   1.367   1_455  A
N328        N329   1.302       .  A
N328        N330   1.310       .  A
N328       Mn334   2.072       .  S
N329        C336   1.323       .  A
N330        N331   1.346       .  A
N330       Mn356   2.357   1_655  S
N331        C336   1.386       .  A
N332        N333   1.320       .  A
N332       Mn334   2.237       .  S
N333        C335   1.345       .  A
Mn334      Cl358   2.502   1_655  S
C335       C2070   1.506       .  S
C336       C2090   1.497       .  S
N337        N338   1.313       .  A
N337        N343   1.310       .  A
N337       Mn345   2.164       .  S
N338        C346   1.348       .  A
N339        N341   1.312       .  A
N339        N340   1.314       .  A
N339       Mn357   2.147       .  S
N340        C347   1.336       .  A
N341        N342   1.318       .  A
N341       Mn345   2.186       .  S
N342        C347   1.350       .  A
N343        N344   1.322       .  A
N343       Mn357   2.178       .  S
N344        C346   1.353       .  A
Mn345      Cl358   2.527       .  S
C346       C2100   1.475       .  S
C347       C2120   1.450       .  S
N348        N349   1.339       .  A
N348        N354   1.322       .  A
N348       Mn356   2.300       .  S
N349        C359   1.373       .  A
N350        N351   1.303       .  A
N350        N352   1.312       .  A
N350       Mn357   2.073       .  S
N351        C360   1.323       .  A
N352        N353   1.348       .  A
N352       Mn356   2.360       .  S
N353        C360   1.386       .  A
N354        N355   1.312       .  A
N354       Mn357   2.191       .  S
N355        C359   1.340       .  A
Mn356      Cl358   2.569       .  S
Mn357      Cl358   2.513       .  S
C359       C2080   1.508       .  S
C360       C2060   1.500       .  S
N361        N362   1.343       .  A
N361        N367   1.310       .  A
N361       Mn390   2.320       .  S
N362        C369   1.378       .  A
N363        N365   1.311       .  A
N363        N364   1.308       .  A
N363       Mn379   2.104       .  S
N364        C370   1.330       .  A
N365        N366   1.345   1_556  A
N365       Mn390   2.336       .  S
N366        C370   1.382   1_554  A
N367        N368   1.307       .  A
N367       Mn379   2.115       .  S
N368        C369   1.337       .  A
C369       C1990   1.510       .  S
C370       C2010   1.503   1_556  S
N371        N377   1.303       .  A
N371        N372   1.317       .  A
N371       Mn401   2.155       .  S
N372        C380   1.357       .  A
N373        N374   1.311       .  A
N373        N375   1.312       .  A
N373       Mn379   2.148       .  S
N374        C381   1.341       .  A
N375        N376   1.319       .  A
N375       Mn401   2.181   1_556  S
N376        C381   1.349       .  A
N377        N378   1.302   1_554  A
N377       Mn379   2.119   1_554  S
N378        C380   1.341   1_556  A
Mn379      Cl403   2.524   1_556  S
C380       C2050   1.443       .  S
C381       C2103   1.454       .  S
N382        N383   1.354       .  A
N382        N388   1.306       .  A
N382       Mn390   2.382   1_554  S
N383        C391   1.388       .  A
N384        N386   1.312   1_554  A
N384        N385   1.304       .  A
N384       Mn402   2.106       .  S
N385        C392   1.332   1_554  A
N386        N387   1.352       .  A
N386       Mn390   2.385       .  S
N387        C392   1.385       .  A
N388        N389   1.302       .  A
N388       Mn402   2.105       .  S
N389        C391   1.330       .  A
Mn390      Cl403   2.414   1_556  S
C391       C2000   1.538       .  S
C392       C2020   1.539       .  S
N393        N394   1.311       .  A
N393        N399   1.313       .  A
N393       Mn401   2.147       .  S
N394        C404   1.339       .  A
N395        N396   1.312       .  A
N395        N397   1.313       .  A
N395       Mn402   2.176       .  S
N396        C405   1.349       .  A
N397        N398   1.309       .  A
N397       Mn401   2.147       .  S
N398        C405   1.348       .  A
N399        N400   1.312       .  A
N399       Mn402   2.151       .  S
N400        C404   1.337       .  A
Mn401      Cl403   2.496       .  S
Mn402      Cl403   2.586       .  S
C404       C2043   1.425   1_554  S
C405       C2033   1.446       .  S
N406        N407   1.322       .  A
N406        N412   1.307       .  A
N406       Mn435   2.179   1_655  S
N407        C414   1.351       .  A
N408        N410   1.307       .  A
N408        N409   1.313       .  A
N408       Mn424   2.165   1_455  S
N409        C415   1.358       .  A
N410        N411   1.312       .  A
N410       Mn435   2.139       .  S
N411        C415   1.348       .  A
N412        N413   1.304       .  A
N412       Mn424   2.118       .  S
N413        C414   1.332       .  A
C414       C2183   1.449       .  S
C415       C1980   1.465       .  S
N416        N422   1.312       .  A
N416        N417   1.346       .  A
N416       Mn446   2.346       .  S
N417        C425   1.383       .  A
N418        N419   1.319       .  A
N418        N420   1.323       .  A
N418       Mn424   2.239       .  S
N419        C426   1.346       .  A
N420        N421   1.338       .  A
N420       Mn446   2.282   1_655  S
N421        C426   1.370       .  A
N422        N423   1.305       .  A
N422       Mn424   2.084   1_455  S
N423        C425   1.325       .  A
Mn424      Cl448   2.490   1_655  S
C425       C1953   1.499       .  S
C426       C1930   1.514       .  S
N427        N428   1.319       .  A
N427        N433   1.305       .  A
N427       Mn435   2.169       .  S
N428        C436   1.351       .  A
N429        N431   1.308   1_455  A
N429        N430   1.321   1_455  A
N429       Mn447   2.169       .  S
N430        C437   1.354       .  A
N431        N432   1.305       .  A
N431       Mn435   2.139   1_655  S
N432        C437   1.347       .  A
N433        N434   1.303       .  A
N433       Mn447   2.098       .  S
N434        C436   1.331       .  A
Mn435      Cl448   2.535       .  S
C436       C2030   1.438       .  S
C437       C1973   1.467       .  S
N438        N439   1.351   1_455  A
N438        N444   1.308       .  A
N438       Mn446   2.366       .  S
N439        C449   1.389       .  A
N440        N441   1.313       .  A
N440        N442   1.324       .  A
N440       Mn447   2.188       .  S
N441        C450   1.339       .  A
N442        N443   1.347       .  A
N442       Mn446   2.347       .  S
N443        C450   1.380       .  A
N444        N445   1.295       .  A
N444       Mn447   2.023       .  S
N445        C449   1.314   1_455  A
Mn446      Cl448   2.547       .  S
Mn447      Cl448   2.507       .  S
C449       C1960   1.495       .  S
C450       C1940   1.528       .  S
N451        N452   1.345   1_556  A
N451        N457   1.315       .  A
N451       Mn480   2.370       .  S
N452        C459   1.382       .  A
N453        N455   1.305       .  A
N453        N454   1.298       .  A
N453       Mn469   2.089       .  S
N454        C460   1.325       .  A
N455        N456   1.350   1_655  A
N455       Mn480   2.351       .  S
N456        C460   1.386   1_455  A
N457        N458   1.307       .  A
N457       Mn469   2.096       .  S
N458        C459   1.331   1_556  A
C459       C1890   1.502       .  S
C460       C1900   1.515       .  S
N461        N467   1.311   1_455  A
N461        N462   1.316       .  A
N461       Mn491   2.189       .  S
N462        C470   1.356       .  A
N463        N464   1.305       .  A
N463        N465   1.312       .  A
N463       Mn469   2.105       .  S
N464        C471   1.327       .  A
N465        N466   1.325       .  A
N465       Mn491   2.216   1_655  S
N466        C471   1.358       .  A
N467        N468   1.310       .  A
N467       Mn469   2.143       .  S
N468        C470   1.345   1_655  A
Mn469      Cl493   2.547       .  S
C470       C2110   1.452       .  S
C471       C2193   1.450   1_556  S
N472        N473   1.348       .  A
N472        N478   1.310   1_556  A
N472       Mn480   2.343   1_455  S
N473        C481   1.382       .  A
N474        N476   1.313   1_455  A
N474        N475   1.305       .  A
N474       Mn492   2.079       .  S
N475        C482   1.330   1_455  A
N476        N477   1.348       .  A
N476       Mn480   2.376   1_554  S
N477        C482   1.385       .  A
N478        N479   1.309       .  A
N478       Mn492   2.131       .  S
N479        C481   1.332   1_554  A
Mn480      Cl493   2.448       .  S
C481       C1913   1.520       .  S
C482       C1920   1.509       .  S
N483        N484   1.318   1_455  A
N483        N489   1.311       .  A
N483       Mn491   2.177   1_554  S
N484        C494   1.351       .  A
N485        N486   1.294       .  A
N485        N487   1.306       .  A
N485       Mn492   2.109   1_556  S
N486        C495   1.328       .  A
N487        N488   1.330       .  A
N487       Mn491   2.206       .  S
N488        C495   1.368       .  A
N489        N490   1.311       .  A
N489       Mn492   2.149       .  S
N490        C494   1.340   1_455  A
Mn491      Cl493   2.526   1_455  S
Mn492      Cl493   2.521   1_454  S
C494       C1970   1.460       .  S
C495       C2040   1.462       .  S
N496        N497   1.304       .  A
N496        N502   1.320       .  A
N496       Mn525   2.122       .  S
N497        C504   1.335   1_556  A
N498        N500   1.311       .  A
N498        N499   1.322       .  A
N498       Mn514   2.185       .  S
N499        C505   1.349       .  A
N500        N501   1.307       .  A
N500       Mn525   2.145       .  S
N501        C505   1.345       .  A
N502        N503   1.322       .  A
N502       Mn514   2.207       .  S
N503        C504   1.346   1_556  A
C504       C2203   1.433       .  S
C505       C2123   1.447       .  S
N506        N512   1.317   1_455  A
N506        N507   1.353       .  A
N506       Mn536   2.390   1_556  S
N507        C515   1.388       .  A
N508        N509   1.298       .  A
N508        N510   1.312   1_556  A
N508       Mn514   2.076       .  S
N509        C516   1.324   1_556  A
N510        N511   1.347       .  A
N510       Mn536   2.351   1_655  S
N511        C516   1.382       .  A
N512        N513   1.298       .  A
N512       Mn514   2.113       .  S
N513        C515   1.326   1_655  A
Mn514      Cl538   2.517       .  S
C515       C1870   1.532       .  S
C516       C1853   1.501       .  S
N517        N518   1.317       .  A
N517        N523   1.305       .  A
N517       Mn525   2.119   1_455  S
N518        C526   1.356       .  A
N519        N521   1.302       .  A
N519        N520   1.297       .  A
N519       Mn537   2.126   1_655  S
N520        C527   1.328       .  A
N521        N522   1.327       .  A
N521       Mn525   2.197   1_554  S
N522        C527   1.364       .  A
N523        N524   1.302       .  A
N523       Mn537   2.158   1_556  S
N524        C526   1.342       .  A
Mn525      Cl538   2.586       .  S
C526       C2053   1.438       .  S
C527       C1983   1.464   1_655  S
N528        N529   1.346   1_455  A
N528        N534   1.308       .  A
N528       Mn536   2.341       .  S
N529        C539   1.384   1_655  A
N530        N531   1.307       .  A
N530        N532   1.308       .  A
N530       Mn537   2.090       .  S
N531        C540   1.328       .  A
N532        N533   1.346   1_554  A
N532       Mn536   2.346       .  S
N533        C540   1.385   1_556  A
N534        N535   1.310       .  A
N534       Mn537   2.111       .  S
N535        C539   1.333       .  A
Mn536      Cl538   2.506   1_454  S
Mn537      Cl538   2.406   1_454  S
C539       C1880   1.511       .  S
C540       C1863   1.502       .  S
N541        N542   1.343       .  A
N541        N547   1.311   1_556  A
N541       Mn570   2.318       .  S
N542        C549   1.379       .  A
N543        N545   1.320       .  A
N543        N544   1.303       .  A
N543       Mn559   2.141       .  S
N544        C550   1.329       .  A
N545        N546   1.340       .  A
N545       Mn570   2.301   1_554  S
N546        C550   1.375       .  A
N547        N548   1.296       .  A
N547       Mn559   2.071       .  S
N548        C549   1.321   1_554  A
C549       C1783   1.478   1_556  S
C550       C1790   1.483       .  S
N551        N557   1.303       .  A
N551        N552   1.312       .  A
N551       Mn581   2.148       .  S
N552        C560   1.348       .  A
N553        N554   1.318   1_554  A
N553        N555   1.312   1_554  A
N553       Mn559   2.155       .  S
N554        C561   1.342       .  A
N555        N556   1.317       .  A
N555       Mn581   2.179   1_556  S
N556        C561   1.347       .  A
N557        N558   1.316       .  A
N557       Mn559   2.135       .  S
N558        C560   1.341       .  A
Mn559      Cl583   2.493       .  S
C560       C1820   1.437       .  S
C561       C1843   1.466       .  S
N562        N563   1.351   1_556  A
N562        N568   1.312       .  A
N562       Mn570   2.356       .  S
N563        C571   1.387       .  A
N564        N566   1.321       .  A
N564        N565   1.310       .  A
N564       Mn582   2.141       .  S
N565        C572   1.337       .  A
N566        N567   1.342       .  A
N566       Mn570   2.343       .  S
N567        C572   1.376       .  A
N568        N569   1.303       .  A
N568       Mn582   2.098       .  S
N569        C571   1.327   1_556  A
Mn570      Cl583   2.542   1_556  S
C571       C1773   1.517       .  S
C572       C1803   1.502       .  S
N573        N574   1.299       .  A
N573        N579   1.306       .  A
N573       Mn581   2.120   1_556  S
N574        C584   1.337       .  A
N575        N576   1.313   1_556  A
N575        N577   1.315   1_556  A
N575       Mn582   2.178       .  S
N576        C585   1.345       .  A
N577        N578   1.318       .  A
N577       Mn581   2.171       .  S
N578        C585   1.351       .  A
N579        N580   1.323       .  A
N579       Mn582   2.146       .  S
N580        C584   1.351       .  A
Mn581      Cl583   2.535       .  S
Mn582      Cl583   2.514   1_556  S
C584       C1813   1.430       .  S
C585       C1830   1.465       .  S
N586        N587   1.299   1_545  A
N586        N592   1.307       .  A
N586       Mn615   2.116       .  S
N587        C594   1.338       .  A
N588        N590   1.305       .  A
N588        N589   1.314       .  A
N588       Mn604   2.149       .  S
N589        C595   1.350       .  A
N590        N591   1.309       .  A
N590       Mn615   2.111       .  S
N591        C595   1.338       .  A
N592        N593   1.321       .  A
N592       Mn604   2.172       .  S
N593        C594   1.361   1_545  A
C594       C1810   1.435       .  S
C595       C1753   1.456       .  S
N596        N602   1.311       .  A
N596        N597   1.312       .  A
N596       Mn626   2.179       .  S
N597        C605   1.352       .  A
N598        N599   1.314       .  A
N598        N600   1.309       .  A
N598       Mn604   2.157       .  S
N599        C606   1.350       .  A
N600        N601   1.317       .  A
N600       Mn626   2.175       .  S
N601        C606   1.348       .  A
N602        N603   1.308       .  A
N602       Mn604   2.135       .  S
N603        C605   1.344       .  A
Mn604      Cl628   2.522       .  S
C605       C1740   1.440       .  S
C606       C1760   1.445       .  S
N607        N608   1.311       .  A
N607        N613   1.312       .  A
N607       Mn615   2.147       .  S
N608        C616   1.337       .  A
N609        N611   1.308       .  A
N609        N610   1.351       .  A
N609       Mn627   2.376   1_565  S
N610        C617   1.389       .  A
N611        N612   1.305       .  A
N611       Mn615   2.086   1_565  S
N612        C617   1.331       .  A
N613        N614   1.345       .  A
N613       Mn627   2.332       .  S
N614        C616   1.382       .  A
Mn615      Cl628   2.498       .  S
C616       C1713   1.517       .  S
C617       C1733   1.525       .  S
N618        N619   1.295       .  A
N618        N624   1.316       .  A
N618       Mn626   2.054       .  S
N619        C629   1.324       .  A
N620        N621   1.358       .  A
N620        N622   1.302       .  A
N620       Mn627   2.403       .  S
N621        C630   1.395       .  A
N622        N623   1.299       .  A
N622       Mn626   2.110       .  S
N623        C630   1.327       .  A
N624        N625   1.350       .  A
N624       Mn627   2.394       .  S
N625        C629   1.386       .  A
Mn626      Cl628   2.563       .  S
Mn627      Cl628   2.442       .  S
C629       C1703   1.509       .  S
C630       C1720   1.548       .  S
N631        N632   1.326       .  A
N631        N637   1.307       .  A
N631       Mn660   2.194       .  S
N632        C639   1.360       .  A
N633        N635   1.306       .  A
N633        N634   1.302       .  A
N633       Mn649   2.112       .  S
N634        C640   1.338   1_556  A
N635        N636   1.314   1_556  A
N635       Mn660   2.163       .  S
N636        C640   1.354       .  A
N637        N638   1.295       .  A
N637       Mn649   2.093       .  S
N638        C639   1.324       .  A
C639       C1743   1.447       .  S
C640       C1690   1.426       .  S
N641        N647   1.306       .  A
N641        N642   1.353   1_556  A
N641       Mn671   2.383       .  S
N642        C650   1.392       .  A
N643        N644   1.317       .  A
N643        N645   1.318       .  A
N643       Mn649   2.191       .  S
N644        C651   1.341       .  A
N645        N646   1.344       .  A
N645       Mn671   2.325       .  S
N646        C651   1.378       .  A
N647        N648   1.301       .  A
N647       Mn649   2.039       .  S
N648        C650   1.319   1_556  A
Mn649      Cl673   2.483       .  S
C650       C1630   1.511       .  S
C651       C1650   1.525       .  S
N652        N653   1.319       .  A
N652        N658   1.311       .  A
N652       Mn660   2.186   1_554  S
N653        C661   1.353       .  A
N654        N656   1.308       .  A
N654        N655   1.315       .  A
N654       Mn672   2.147   1_556  S
N655        C662   1.344       .  A
N656        N657   1.313       .  A
N656       Mn660   2.154       .  S
N657        C662   1.349       .  A
N658        N659   1.310       .  A
N658       Mn672   2.130       .  S
N659        C661   1.335       .  A
Mn660      Cl673   2.529       .  S
C661       C1670   1.442       .  S
C662       C1680   1.450       .  S
N663        N664   1.349       .  A
N663        N669   1.311       .  A
N663       Mn671   2.362       .  S
N664        C674   1.386       .  A
N665        N666   1.304       .  A
N665        N667   1.319       .  A
N665       Mn672   2.138       .  S
N666        C675   1.329       .  A
N667        N668   1.343       .  A
N667       Mn671   2.319   1_554  S
N668        C675   1.377       .  A
N669        N670   1.296       .  A
N669       Mn672   2.044   1_556  S
N670        C674   1.318       .  A
Mn671      Cl673   2.539       .  S
Mn672      Cl673   2.508   1_554  S
C674       C1640   1.492       .  S
C675       C1660   1.497       .  S
N676        N677   1.314       .  A
N676        N682   1.307       .  A
N676       Mn705   2.198   1_565  S
N677        C684   1.350       .  A
N678        N680   1.318       .  A
N678        N679   1.312       .  A
N678       Mn694   2.171   1_545  S
N679        C685   1.344       .  A
N680        N681   1.307       .  A
N680       Mn705   2.211       .  S
N681        C685   1.339       .  A
N682        N683   1.314       .  A
N682       Mn694   2.114       .  S
N683        C684   1.339       .  A
C684       C1823   1.438       .  S
C685       C1613   1.446       .  S
N686        N692   1.300       .  A
N686        N687   1.358       .  A
N686       Mn716   2.415       .  S
N687        C695   1.397       .  A
N688        N689   1.309       .  A
N688        N690   1.312       .  A
N688       Mn694   2.077       .  S
N689        C696   1.333       .  A
N690        N691   1.349       .  A
N690       Mn716   2.397   1_565  S
N691        C696   1.385       .  A
N692        N693   1.309       .  A
N692       Mn694   2.154   1_545  S
N693        C695   1.333       .  A
Mn694      Cl718   2.635   1_565  S
C695       C1590   1.565       .  S
C696       C1580   1.523       .  S
N697        N698   1.315       .  A
N697        N703   1.304       .  A
N697       Mn705   2.172       .  S
N698        C706   1.354       .  A
N699        N701   1.314       .  A
N699        N700   1.318       .  A
N699       Mn717   2.193       .  S
N700        C707   1.355   1_545  A
N701        N702   1.321   1_545  A
N701       Mn705   2.205       .  S
N702        C707   1.353       .  A
N703        N704   1.314       .  A
N703       Mn717   2.126       .  S
N704        C706   1.341       .  A
Mn705      Cl718   2.399       .  S
C706       C1673   1.445       .  S
C707       C1623   1.478       .  S
N708        N709   1.340   1_545  A
N708        N714   1.312       .  A
N708       Mn716   2.338       .  S
N709        C719   1.377       .  A
N710        N711   1.315       .  A
N710        N712   1.317       .  A
N710       Mn717   2.173       .  S
N711        C720   1.338       .  A
N712        N713   1.346       .  A
N712       Mn716   2.341       .  S
N713        C720   1.381       .  A
N714        N715   1.310       .  A
N714       Mn717   2.100       .  S
N715        C719   1.336   1_545  A
Mn716      Cl718   2.316       .  S
Mn717      Cl718   2.578       .  S
C719       C1603   1.495       .  S
C720       C1570   1.530       .  S
N721        N722   1.310       .  A
N721        N727   1.308       .  A
N721       Mn750   2.117       .  S
N722        C729   1.337       .  A
N723        N725   1.317       .  A
N723        N724   1.327       .  A
N723       Mn739   2.218       .  S
N724        C730   1.350       .  A
N725        N726   1.317       .  A
N725       Mn750   2.160   1_556  S
N726        C730   1.338       .  A
N727        N728   1.313       .  A
N727       Mn739   2.132   1_554  S
N728        C729   1.338       .  A
C729       C1610   1.432   1_545  S
C730       C1683   1.492       .  S
N731        N737   1.304       .  A
N731        N732   1.320       .  A
N731       Mn761   2.171   1_545  S
N732        C740   1.352       .  A
N733        N734   1.317   1_556  A
N733        N735   1.313       .  A
N733       Mn739   2.189   1_565  S
N734        C741   1.349       .  A
N735        N736   1.316       .  A
N735       Mn761   2.162       .  S
N736        C741   1.342   1_556  A
N737        N738   1.303       .  A
N737       Mn739   2.107       .  S
N738        C740   1.336       .  A
Mn739      Cl763   2.556       .  S
C740       C1750   1.447       .  S
C741       C1833   1.460       .  S
N742        N743   1.299       .  A
N742        N748   1.311       .  A
N742       Mn750   2.108   1_556  S
N743        C751   1.330       .  A
N744        N746   1.319       .  A
N744        N745   1.349       .  A
N744       Mn762   2.382   1_554  S
N745        C752   1.387       .  A
N746        N747   1.310       .  A
N746       Mn750   2.130       .  S
N747        C752   1.332       .  A
N748        N749   1.350       .  A
N748       Mn762   2.334       .  S
N749        C751   1.384       .  A
Mn750      Cl763   2.509   1_554  S
C751       C1540   1.517       .  S
C752       C1560   1.518       .  S
N753        N754   1.304       .  A
N753        N759   1.316       .  A
N753       Mn761   2.094       .  S
N754        C764   1.324   1_556  A
N755        N756   1.349       .  A
N755        N757   1.320       .  A
N755       Mn762   2.382       .  S
N756        C765   1.385       .  A
N757        N758   1.304       .  A
N757       Mn761   2.099   1_545  S
N758        C765   1.324       .  A
N759        N760   1.349   1_556  A
N759       Mn762   2.366   1_565  S
N760        C764   1.385       .  A
Mn761      Cl763   2.516   1_565  S
Mn762      Cl763   2.536       .  S
C764       C1533   1.504       .  S
C765       C1550   1.507       .  S
N766        N767   1.346       .  A
N766        N772   1.319   1_554  A
N766       Mn795   2.370   1_565  S
N767        C774   1.377       .  A
N768        N770   1.297       .  A
N768        N769   1.302       .  A
N768       Mn784   2.142   1_545  S
N769        C775   1.327       .  A
N770        N771   1.356       .  A
N770       Mn795   2.392   1_556  S
N771        C775   1.395       .  A
N772        N773   1.305       .  A
N772       Mn784   2.112       .  S
N773        C774   1.334   1_556  A
C774       C1503   1.518       .  S
C775       C1510   1.551       .  S
N776        N782   1.319       .  A
N776        N777   1.311       .  A
N776       Mn806   2.145   1_545  S
N777        C785   1.337       .  A
N778        N779   1.322       .  A
N778        N780   1.319       .  A
N778       Mn784   2.162       .  S
N779        C786   1.339       .  A
N780        N781   1.314       .  A
N780       Mn806   2.178       .  S
N781        C786   1.352       .  A
N782        N783   1.313       .  A
N782       Mn784   2.222   1_545  S
N783        C785   1.344       .  A
Mn784      Cl808   2.588   1_565  S
C785       C1763   1.441       .  S
C786       C1840   1.467       .  S
N787        N788   1.340       .  A
N787        N793   1.314       .  A
N787       Mn795   2.302       .  S
N788        C796   1.376       .  A
N789        N791   1.309       .  A
N789        N790   1.305       .  A
N789       Mn807   2.089       .  S
N790        C797   1.333   1_545  A
N791        N792   1.342   1_545  A
N791       Mn795   2.324       .  S
N792        C797   1.379       .  A
N793        N794   1.320       .  A
N793       Mn807   2.199       .  S
N794        C796   1.345       .  A
Mn795      Cl808   2.429   1_554  S
C796       C1490   1.516       .  S
C797       C1523   1.495       .  S
N798        N799   1.328       .  A
N798        N804   1.314       .  A
N798       Mn806   2.221   1_554  S
N799        C809   1.362       .  A
N800        N801   1.300       .  A
N800        N802   1.304   1_554  A
N800       Mn807   2.080       .  S
N801        C810   1.335   1_554  A
N802        N803   1.321       .  A
N802       Mn806   2.170   1_545  S
N803        C810   1.354       .  A
N804        N805   1.309       .  A
N804       Mn807   2.169   1_565  S
N805        C809   1.344       .  A
Mn806      Cl808   2.517   1_565  S
Mn807      Cl808   2.510   1_554  S
C809       C1620   1.473       .  S
C810       C1693   1.443       .  S
N811        N812   1.304       .  A
N811        N817   1.307       .  A
N811       Mn840   2.141       .  S
N812        C819   1.347       .  A
N813        N815   1.308   1_455  A
N813        N814   1.323       .  A
N813       Mn829   2.201       .  S
N814        C820   1.357   1_455  A
N815        N816   1.304       .  A
N815       Mn840   2.109       .  S
N816        C820   1.330       .  A
N817        N818   1.310       .  A
N817       Mn829   2.157   1_655  S
N818        C819   1.351       .  A
C819       C1453   1.463       .  S
C820       C1473   1.448       .  S
N821        N827   1.311       .  A
N821        N822   1.323       .  A
N821       Mn851   2.217       .  S
N822        C830   1.352       .  A
N823        N824   1.314       .  A
N823        N825   1.308       .  A
N823       Mn829   2.182       .  S
N824        C831   1.351       .  A
N825        N826   1.320       .  A
N825       Mn851   2.152       .  S
N826        C831   1.342       .  A
N827        N828   1.317       .  A
N827       Mn829   2.144       .  S
N828        C830   1.348       .  A
Mn829      Cl853   2.542       .  S
C830       C1463   1.483       .  S
C831       C1480   1.457       .  S
N832        N833   1.323       .  A
N832        N838   1.321   1_655  A
N832       Mn840   2.255       .  S
N833        C841   1.349       .  A
N834        N836   1.307       .  A
N834        N835   1.348       .  A
N834       Mn852   2.361   1_655  S
N835        C842   1.386       .  A
N836        N837   1.308       .  A
N836       Mn840   2.090       .  S
N837        C842   1.325       .  A
N838        N839   1.338       .  A
N838       Mn852   2.274       .  S
N839        C841   1.372   1_455  A
Mn840      Cl853   2.447   1_655  S
C841       C1423   1.522       .  S
C842       C1440   1.512       .  S
N843        N844   1.315       .  A
N843        N849   1.325       .  A
N843       Mn851   2.199       .  S
N844        C854   1.340       .  A
N845        N846   1.355       .  A
N845        N847   1.308       .  A
N845       Mn852   2.372       .  S
N846        C855   1.392       .  A
N847        N848   1.292       .  A
N847       Mn851   2.041       .  S
N848        C855   1.314       .  A
N849        N850   1.342       .  A
N849       Mn852   2.327       .  S
N850        C854   1.374       .  A
Mn851      Cl853   2.470       .  S
Mn852      Cl853   2.580       .  S
C854       C1430   1.515       .  S
C855       C1413   1.511       .  S
N856        N857   1.301       .  A
N856        N862   1.308   1_565  A
N856       Mn885   2.097       .  S
N857        C864   1.340       .  A
N858        N860   1.307       .  A
N858        N859   1.333       .  A
N858       Mn874   2.211       .  S
N859        C865   1.364       .  A
N860        N861   1.291       .  A
N860       Mn885   2.096   1_545  S
N861        C865   1.325       .  A
N862        N863   1.313       .  A
N862       Mn874   2.166       .  S
N863        C864   1.352   1_545  A
C864       C1450   1.441       .  S
C865       C1400   1.461       .  S
N866        N872   1.312       .  A
N866        N867   1.317       .  A
N866       Mn896   2.165       .  S
N867        C875   1.345       .  A
N868        N869   1.318       .  A
N868        N870   1.313       .  A
N868       Mn874   2.178       .  S
N869        C876   1.345       .  A
N870        N871   1.321       .  A
N870       Mn896   2.181       .  S
N871        C876   1.345       .  A
N872        N873   1.308       .  A
N872       Mn874   2.131       .  S
N873        C875   1.345       .  A
Mn874      Cl898   2.517       .  S
C875       C1380   1.455       .  S
C876       C1390   1.464       .  S
N877        N878   1.313       .  A
N877        N883   1.315       .  A
N877       Mn885   2.153   1_545  S
N878        C886   1.334       .  A
N879        N881   1.311       .  A
N879        N880   1.341       .  A
N879       Mn897   2.319   1_565  S
N880        C887   1.377       .  A
N881        N882   1.306       .  A
N881       Mn885   2.088       .  S
N882        C887   1.328       .  A
N883        N884   1.348       .  A
N883       Mn897   2.344       .  S
N884        C886   1.384       .  A
Mn885      Cl898   2.515   1_565  S
C886       C1360   1.524       .  S
C887       C1373   1.483       .  S
N888        N889   1.297       .  A
N888        N894   1.313       .  A
N888       Mn896   2.085       .  S
N889        C899   1.326       .  A
N890        N891   1.353       .  A
N890        N892   1.310       .  A
N890       Mn897   2.380       .  S
N891        C900   1.389       .  A
N892        N893   1.300       .  A
N892       Mn896   2.095       .  S
N893        C900   1.327       .  A
N894        N895   1.354   1_545  A
N894       Mn897   2.391       .  S
N895        C899   1.389   1_565  A
Mn896      Cl898   2.561       .  S
Mn897      Cl898   2.486       .  S
C899       C1353   1.532   1_545  S
C900       C1340   1.525       .  S
N901        N902   1.319       .  A
N901        N907   1.317       .  A
N901       Mn930   2.180   1_565  S
N902        C909   1.352       .  A
N903        N905   1.306       .  A
N903        N904   1.319       .  A
N903       Mn919   2.124       .  S
N904        C910   1.343       .  A
N905        N906   1.309       .  A
N905       Mn930   2.166   1_565  S
N906        C910   1.350       .  A
N907        N908   1.314       .  A
N907       Mn919   2.183       .  S
N908        C909   1.343       .  A
C909       C1460   1.463       .  S
C910       C1333   1.441       .  S
N911        N917   1.326   1_545  A
N911        N912   1.339       .  A
N911       Mn941   2.311       .  S
N912        C920   1.369       .  A
N913        N914   1.301       .  A
N913        N915   1.309       .  A
N913       Mn919   2.062       .  S
N914        C921   1.320       .  A
N915        N916   1.353       .  A
N915       Mn941   2.369   1_565  S
N916        C921   1.390       .  A
N917        N918   1.312       .  A
N917       Mn919   2.168       .  S
N918        C920   1.338   1_565  A
Mn919      Cl943   2.485   1_565  S
C920       C1273   1.501       .  S
C921       C1290   1.513       .  S
N922        N923   1.320       .  A
N922        N928   1.309       .  A
N922       Mn930   2.185       .  S
N923        C931   1.356       .  A
N924        N926   1.309       .  A
N924        N925   1.310       .  A
N924       Mn942   2.121       .  S
N925        C932   1.335       .  A
N926        N927   1.317       .  A
N926       Mn930   2.197       .  S
N927        C932   1.355       .  A
N928        N929   1.313       .  A
N928       Mn942   2.159       .  S
N929        C931   1.349       .  A
Mn930      Cl943   2.537       .  S
C931       C1313   1.469       .  S
C932       C1323   1.443       .  S
N933        N934   1.328       .  A
N933        N939   1.321       .  A
N933       Mn941   2.211       .  S
N934        C944   1.362       .  A
N935        N936   1.306       .  A
N935        N937   1.304       .  A
N935       Mn942   2.140       .  S
N936        C945   1.330       .  A
N937        N938   1.343       .  A
N937       Mn941   2.308       .  S
N938        C945   1.377       .  A
N939        N940   1.325       .  A
N939       Mn942   2.284       .  S
N940        C944   1.354       .  A
Mn941      Cl943   2.562       .  S
Mn942      Cl943   2.457       .  S
C944       C1303   1.502       .  S
C945       C1280   1.506       .  S
N946        N947   1.325       .  A
N946        N952   1.304       .  A
N946       Mn975   2.178   1_655  S
N947        C954   1.355       .  A
N948        N950   1.315   1_655  A
N948        N949   1.313   1_655  A
N948       Mn964   2.168       .  S
N949        C955   1.348       .  A
N950        N951   1.319       .  A
N950       Mn975   2.196       .  S
N951        C955   1.354       .  A
N952        N953   1.298       .  A
N952       Mn964   2.096       .  S
N953        C954   1.330       .  A
C954       C1383   1.456       .  S
C955       C1250   1.465       .  S
N956        N962   1.311   1_455  A
N956        N957   1.340       .  A
N956       Mn986   2.313       .  S
N957        C965   1.376       .  A
N958        N959   1.317       .  A
N958        N960   1.321       .  A
N958       Mn964   2.211       .  S
N959        C966   1.342       .  A
N960        N961   1.343       .  A
N960       Mn986   2.318   1_655  S
N961        C966   1.377       .  A
N962        N963   1.306       .  A
N962       Mn964   2.089       .  S
N963        C965   1.330   1_655  A
Mn964      Cl988   2.513   1_655  S
C965       C1240   1.483       .  S
C966       C1220   1.522       .  S
N967        N968   1.314       .  A
N967        N973   1.310       .  A
N967       Mn975   2.161       .  S
N968        C976   1.347       .  A
N969        N971   1.315   1_455  A
N969        N970   1.314   1_455  A
N969       Mn987   2.162       .  S
N970        C977   1.344       .  A
N971        N972   1.313       .  A
N971       Mn975   2.168   1_655  S
N972        C977   1.352       .  A
N973        N974   1.319       .  A
N973       Mn987   2.152       .  S
N974        C976   1.345       .  A
Mn975      Cl988   2.519       .  S
C976       C1310   1.458       .  S
C977       C1260   1.462       .  S
N978        N979   1.352       .  A
N978        N984   1.307   1_655  A
N978       Mn986   2.358   1_655  S
N979        C989   1.389       .  A
N980        N981   1.302       .  A
N980        N982   1.320       .  A
N980       Mn987   2.096       .  S
N981        C990   1.332       .  A
N982        N983   1.342       .  A
N982       Mn986   2.347       .  S
N983        C990   1.376       .  A
N984        N985   1.301       .  A
N984       Mn987   2.076       .  S
N985        C989   1.323   1_455  A
Mn986      Cl988   2.517       .  S
Mn987      Cl988   2.524       .  S
C989       C1213   1.516       .  S
C990       C1230   1.488       .  S
N991        N992   1.303   1_455  A
N991        N997   1.315       .  A
N991      Mn1020   2.146       .  S
N992        C999   1.345   1_655  A
N993        N995   1.312       .  A
N993        N994   1.318       .  A
N993      Mn1009   2.137       .  S
N994       C1000   1.339       .  A
N995        N996   1.312       .  A
N995      Mn1020   2.185       .  S
N996       C1000   1.351       .  A
N997        N998   1.318       .  A
N997      Mn1009   2.188       .  S
N998        C999   1.350       .  A
C999       C1470   1.442   1_455  S
C1000      C1320   1.442   1_565  S
N1001      N1007   1.314   1_545  A
N1001      N1002   1.350       .  A
N1001     Mn1031   2.377   1_455  S
N1002      C1010   1.385       .  A
N1003      N1004   1.298       .  A
N1003      N1005   1.304   1_455  A
N1003     Mn1009   2.115       .  S
N1004      C1011   1.327   1_455  A
N1005      N1006   1.353       .  A
N1005     Mn1031   2.375   1_565  S
N1006      C1011   1.389       .  A
N1007      N1008   1.297   1_565  A
N1007     Mn1009   2.063       .  S
N1008      C1010   1.326       .  A
Mn1009    Cl1033   2.572   1_565  S
C1010      C1170   1.509       .  S
C1011      C1183   1.535       .  S
N1012      N1013   1.318       .  A
N1012      N1018   1.311       .  A
N1012     Mn1020   2.178   1_545  S
N1013      C1021   1.351       .  A
N1014      N1016   1.305   1_545  A
N1014      N1015   1.299       .  A
N1014     Mn1032   2.107       .  S
N1015      C1022   1.333   1_545  A
N1016      N1017   1.331       .  A
N1016     Mn1020   2.215   1_655  S
N1017      C1022   1.367       .  A
N1018      N1019   1.314       .  A
N1018     Mn1032   2.165   1_455  S
N1019      C1021   1.350       .  A
Mn1020    Cl1033   2.508   1_565  S
C1021      C1253   1.463       .  S
C1022      C1393   1.469       .  S
N1023      N1024   1.341       .  A
N1023      N1029   1.314       .  A
N1023     Mn1031   2.300       .  S
N1024      C1034   1.376       .  A
N1025      N1026   1.309       .  A
N1025      N1027   1.312   1_655  A
N1025     Mn1032   2.099       .  S
N1026      C1035   1.333   1_655  A
N1027      N1028   1.341       .  A
N1027     Mn1031   2.335   1_455  S
N1028      C1035   1.379       .  A
N1029      N1030   1.313       .  A
N1029     Mn1032   2.163       .  S
N1030      C1034   1.336       .  A
Mn1031    Cl1033   2.450   1_655  S
Mn1032    Cl1033   2.516   1_655  S
C1034      C1190   1.503   1_545  S
C1035      C1200   1.494       .  S
N1036      N1037   1.304       .  A
N1036      N1042   1.314       .  A
N1036     Mn1065   2.117       .  S
N1037      C1044   1.334       .  A
N1038      N1040   1.307   1_655  A
N1038      N1039   1.327       .  A
N1038     Mn1054   2.200       .  S
N1039      C1045   1.357       .  A
N1040      N1041   1.298       .  A
N1040     Mn1065   2.097       .  S
N1041      C1045   1.331   1_455  A
N1042      N1043   1.323       .  A
N1042     Mn1054   2.218   1_455  S
N1043      C1044   1.358       .  A
C1044      C1330   1.462   1_545  S
C1045      C1263   1.459       .  S
N1046      N1052   1.315       .  A
N1046      N1047   1.313       .  A
N1046     Mn1076   2.152   1_545  S
N1047      C1055   1.339       .  A
N1048      N1049   1.318       .  A
N1048      N1050   1.309       .  A
N1048     Mn1054   2.193   1_565  S
N1049      C1056   1.354       .  A
N1050      N1051   1.316       .  A
N1050     Mn1076   2.142       .  S
N1051      C1056   1.340       .  A
N1052      N1053   1.318       .  A
N1052     Mn1054   2.183       .  S
N1053      C1055   1.350       .  A
Mn1054    Cl1078   2.528   1_655  S
C1055      C1403   1.450       .  S
C1056      C1483   1.447   1_655  S
N1057      N1058   1.307       .  A
N1057      N1063   1.316       .  A
N1057     Mn1065   2.141       .  S
N1058      C1066   1.332       .  A
N1059      N1061   1.314       .  A
N1059      N1060   1.339       .  A
N1059     Mn1077   2.310       .  S
N1060      C1067   1.375       .  A
N1061      N1062   1.306       .  A
N1061     Mn1065   2.106       .  S
N1062      C1067   1.330       .  A
N1063      N1064   1.342       .  A
N1063     Mn1077   2.318       .  S
N1064      C1066   1.377       .  A
Mn1065    Cl1078   2.526       .  S
C1066      C1140   1.497       .  S
C1067      C1150   1.482       .  S
N1068      N1069   1.297       .  A
N1068      N1074   1.315   1_655  A
N1068     Mn1076   2.072       .  S
N1069      C1079   1.325   1_655  A
N1070      N1071   1.351       .  A
N1070      N1072   1.308       .  A
N1070     Mn1077   2.352   1_655  S
N1071      C1080   1.386       .  A
N1072      N1073   1.298       .  A
N1072     Mn1076   2.087   1_545  S
N1073      C1080   1.326       .  A
N1074      N1075   1.350       .  A
N1074     Mn1077   2.373   1_565  S
N1075      C1079   1.385       .  A
Mn1076    Cl1078   2.543   1_665  S
Mn1077    Cl1078   2.502       .  S
C1079      C1163   1.508       .  S
C1080      C1133   1.516       .  S
C1081      C1082   1.384       .  D
C1081      C1203   1.526   1_655  S
C1081      C1243   1.519   1_655  S
C1082      C1923   1.526       .  S
C1082      C1963   1.539       .  S
C1083      C1084   1.383       .  D
C1083      C1520   1.516       .  S
C1083      C1600   1.525       .  S
C1084      C1193   1.536       .  S
C1084      C1350   1.525       .  S
C1085      C1086   1.388       .  D
C1085      C1883   1.544       .  S
C1085      C1950   1.532   1_655  S
C1086      C1180   1.535       .  S
C1086      C1420   1.536       .  S
C1087      C1088   1.393       .  D
C1087      C1563   1.542       .  S
C1087      C1593   1.554       .  S
C1088      C1173   1.527       .  S
C1088      C1300   1.514       .  S
C1089      C1090   1.379       .  D
C1089      C2243   1.538       .  S
C1089      C2513   1.524       .  S
C1090      C1233   1.512       .  S
C1090      C1283   1.526       .  S
C1091      C1092   1.381       .  D
C1091      C2323   1.523       .  S
C1091      C2523   1.525       .  S
C1092      C1223   1.541       .  S
C1092      C1343   1.541       .  S
C1093      C1094   1.398       .  D
C1093      C1293   1.545       .  S
C1093      C1410   1.537       .  S
C1094      C2233   1.550       .  S
C1094      C2370   1.544       .  S
C1095      C1096   1.379       .  D
C1095      C1153   1.518       .  S
C1095      C1270   1.513       .  S
C1096      C1553   1.535       .  S
C1096      C1710   1.528       .  S
C1097      C1098   1.390       .  D
C1097      C1543   1.527       .  S
C1097      C1643   1.543       .  S
C1098      C1910   1.550       .  S
C1098      C2023   1.535       .  S
C1099      C1100   1.385       .  D
C1099      C1860   1.538       .  S
C1099      C2013   1.529       .  S
C1100      C1530   1.533       .  S
C1100      C1770   1.530       .  S
C1101      C1102   1.387       .  D
C1101      C2383   1.511       .  S
C1101      C2453   1.545       .  S
C1102      C1583   1.539       .  S
C1102      C1793   1.505       .  S
C1103      C1104   1.386       .  D
C1103      C2443   1.564       .  S
C1103      C2503   1.518       .  S
C1104      C1573   1.542       .  S
C1104      C1663   1.510       .  S
C1105      C1106   1.389       .  D
C1105      C2283   1.529       .  S
C1105      C2493   1.535       .  S
C1106      C1653   1.542       .  S
C1106      C1723   1.551       .  S
C1107      C1108   1.380       .  D
C1107      C1903   1.536       .  S
C1107      C2073   1.519       .  S
C1108      C1143   1.528       .  S
C1108      C1210   1.541       .  S
C1109      C1110   1.383       .  D
C1109      C1893   1.528       .  S
C1109      C2133   1.517       .  S
C1110      C1493   1.533       .  S
C1110      C1633   1.539       .  S
C1111      C1112   1.389       .  D
C1111      C2223   1.523       .  S
C1111      C2433   1.527       .  S
C1112      C1943   1.538       .  S
C1112      C2003   1.546       .  S
C1113      C1114   1.387       .  D
C1113      C2333   1.532       .  S
C1113      C2423   1.511       .  S
C1114      C1933   1.522       .  S
C1114      C2153   1.555       .  S
C1115      C1116   1.399       .  D
C1115      C2213   1.544       .  S
C1115      C2273   1.573       .  S
C1116      C1993   1.525       .  S
C1116      C2063   1.547       .  S
C1117      C1118   1.381       .  D
C1117      C1873   1.525       .  S
C1117      C2083   1.514       .  S
C1118      C1160   1.516       .  S
C1118      C1433   1.524       .  S
C1119      C1120   1.385       .  D
C1119      C1513   1.537       .  S
C1119      C1700   1.522       .  S
C1120      C1130   1.530       .  S
C1120      C1363   1.548       .  S
C1121      C1122   1.378       .  D
C1121      C1850   1.522       .  S
C1121      C2143   1.509       .  S
C1122      C1500   1.517       .  S
C1122      C1780   1.525       .  S
C1123      C1124   1.381       .  D
C1123      C2263   1.527       .  S
C1123      C2313   1.529       .  S
C1124      C2093   1.532       .  S
C1124      C2163   1.534       .  S
C1125      C1126   1.377       .  D
C1125      C2303   1.508       .  S
C1125      C2353   1.540       .  S
C1126      C1370   1.510       .  S
C1126      C1443   1.539       .  S
C1127      C1128   1.395       .  D
C1127      C2253   1.555       .  S
C1127      C2363   1.550       .  S
C1128      C1730   1.547       .  S
C1128      C1800   1.533       .  S
C1129      C1130   1.402       .  A
C1129      C1134   1.397       .  A
C1129      F1136   1.355       .  S
C1130      C1131   1.421       .  A
C1131      C1132   1.432       .  A
C1131      F1138   1.356       .  S
C1132      C1133   1.415       .  A
C1132      F1137   1.356       .  S
C1133      C1134   1.418       .  A
C1134      F1135   1.360   1_545  S
C1139      C1140   1.411       .  A
C1139      C1144   1.406       .  A
C1139      F1146   1.358       .  S
C1140      C1141   1.411   1_455  A
C1141      C1142   1.420       .  A
C1141      F1148   1.357       .  S
C1142      C1143   1.418       .  A
C1142      F1147   1.356       .  S
C1143      C1144   1.410   1_655  A
C1144      F1145   1.357       .  S
C1149      C1150   1.406       .  A
C1149      C1154   1.410       .  A
C1149      F1156   1.358   1_545  S
C1150      C1151   1.409       .  A
C1151      C1152   1.406       .  A
C1151      F1158   1.358       .  S
C1152      C1153   1.410       .  A
C1152      F1157   1.358       .  S
C1153      C1154   1.413       .  A
C1154      F1155   1.354   1_545  S
C1159      C1160   1.398       .  A
C1159      C1164   1.393       .  A
C1159      F1166   1.356   1_455  S
C1160      C1161   1.419       .  A
C1161      C1162   1.427       .  A
C1161      F1168   1.356       .  S
C1162      C1163   1.412       .  A
C1162      F1167   1.356       .  S
C1163      C1164   1.418       .  A
C1164      F1165   1.360   1_455  S
C1169      C1170   1.413       .  A
C1169      C1174   1.429       .  A
C1169      F1176   1.356       .  S
C1170      C1171   1.417       .  A
C1171      C1172   1.394       .  A
C1171      F1178   1.360   1_545  S
C1172      C1173   1.399       .  A
C1172      F1177   1.354   1_545  S
C1173      C1174   1.421       .  A
C1174      F1175   1.355       .  S
C1179      C1180   1.425       .  A
C1179      C1184   1.436       .  A
C1179      F1186   1.355       .  S
C1180      C1181   1.398   1_655  A
C1181      C1182   1.395       .  A
C1181      F1188   1.358       .  S
C1182      C1183   1.429   1_455  A
C1182      F1187   1.359       .  S
C1183      C1184   1.415       .  A
C1184      F1185   1.356       .  S
C1189      C1190   1.407   1_545  A
C1189      C1194   1.408       .  A
C1189      F1196   1.358       .  S
C1190      C1191   1.415       .  A
C1191      C1192   1.422       .  A
C1191      F1198   1.357       .  S
C1192      C1193   1.413       .  A
C1192      F1197   1.357       .  S
C1193      C1194   1.416   1_565  A
C1194      F1195   1.356       .  S
C1199      C1200   1.407       .  A
C1199      C1204   1.414       .  A
C1199      F1206   1.357       .  S
C1200      C1201   1.412   1_455  A
C1201      C1202   1.410       .  A
C1201      F1208   1.358       .  S
C1202      C1203   1.409   1_655  A
C1202      F1207   1.357       .  S
C1203      C1204   1.416       .  A
C1204      F1205   1.353       .  S
C1209      C1210   1.406   1_455  A
C1209      C1214   1.407       .  A
C1209      F1216   1.356       .  S
C1210      C1211   1.422       .  A
C1211      C1212   1.430       .  A
C1211      F1218   1.355       .  S
C1212      C1213   1.414       .  A
C1212      F1217   1.357       .  S
C1213      C1214   1.419   1_655  A
C1214      F1215   1.359       .  S
C1219      C1220   1.413       .  A
C1219      C1224   1.414       .  A
C1219      F1226   1.358       .  S
C1220      C1221   1.416       .  A
C1221      C1222   1.429       .  A
C1221      F1228   1.357       .  S
C1222      C1223   1.418       .  A
C1222      F1227   1.356       .  S
C1223      C1224   1.413       .  A
C1224      F1225   1.357       .  S
C1229      C1230   1.409       .  A
C1229      C1234   1.419       .  A
C1229      F1236   1.357       .  S
C1230      C1231   1.409       .  A
C1231      C1232   1.394       .  A
C1231      F1238   1.360       .  S
C1232      C1233   1.406       .  A
C1232      F1237   1.353       .  S
C1233      C1234   1.414       .  A
C1234      F1235   1.357       .  S
C1239      C1240   1.405       .  A
C1239      C1244   1.411       .  A
C1239      F1246   1.358       .  S
C1240      C1241   1.410   1_455  A
C1241      C1242   1.405       .  A
C1241      F1248   1.358       .  S
C1242      C1243   1.409   1_655  A
C1242      F1247   1.358       .  S
C1243      C1244   1.416       .  A
C1244      F1245   1.352       .  S
C1249      C1250   1.406       .  A
C1249      C1254   1.389       .  A
C1249      F1256   1.359       .  S
C1250      C1251   1.404       .  A
C1251      C1252   1.393       .  A
C1251      F1258   1.357       .  S
C1252      C1253   1.405       .  A
C1252      F1257   1.357       .  S
C1253      C1254   1.404       .  A
C1254      F1255   1.359       .  S
C1259      C1260   1.393       .  A
C1259      C1264   1.381       .  A
C1259      F1266   1.354       .  S
C1260      C1261   1.398       .  A
C1261      C1262   1.403       .  A
C1261      F1268   1.352       .  S
C1262      C1263   1.400       .  A
C1262      F1267   1.349       .  S
C1263      C1264   1.414       .  A
C1264      F1265   1.354   1_655  S
C1269      C1270   1.405   1_565  A
C1269      C1274   1.399       .  A
C1269      F1276   1.356       .  S
C1270      C1271   1.413       .  A
C1271      C1272   1.419       .  A
C1271      F1278   1.357       .  S
C1272      C1273   1.412       .  A
C1272      F1277   1.357       .  S
C1273      C1274   1.411   1_545  A
C1274      F1275   1.358       .  S
C1279      C1280   1.413       .  A
C1279      C1284   1.402       .  A
C1279      F1286   1.359       .  S
C1280      C1281   1.412       .  A
C1281      C1282   1.424       .  A
C1281      F1288   1.357       .  S
C1282      C1283   1.419       .  A
C1282      F1287   1.357       .  S
C1283      C1284   1.407       .  A
C1284      F1285   1.354       .  S
C1289      C1290   1.415       .  A
C1289      C1294   1.407       .  A
C1289      F1296   1.360       .  S
C1290      C1291   1.417       .  A
C1291      C1292   1.432       .  A
C1291      F1298   1.356       .  S
C1292      C1293   1.418       .  A
C1292      F1297   1.356       .  S
C1293      C1294   1.411       .  A
C1294      F1295   1.352       .  S
C1299      C1300   1.408       .  A
C1299      C1304   1.412       .  A
C1299      F1306   1.357       .  S
C1300      C1301   1.412       .  A
C1301      C1302   1.410       .  A
C1301      F1308   1.356   1_545  S
C1302      C1303   1.407       .  A
C1302      F1307   1.358   1_545  S
C1303      C1304   1.411       .  A
C1304      F1305   1.357       .  S
C1309      C1310   1.402       .  A
C1309      C1314   1.395       .  A
C1309      F1316   1.358       .  S
C1310      C1311   1.406       .  A
C1311      C1312   1.391       .  A
C1311      F1318   1.358       .  S
C1312      C1313   1.400       .  A
C1312      F1317   1.357       .  S
C1313      C1314   1.408       .  A
C1314      F1315   1.358       .  S
C1319      C1320   1.395   1_565  A
C1319      C1324   1.388   1_565  A
C1319      F1326   1.357       .  S
C1320      C1321   1.405       .  A
C1321      C1322   1.393       .  A
C1321      F1328   1.358       .  S
C1322      C1323   1.398       .  A
C1322      F1327   1.357       .  S
C1323      C1324   1.404       .  A
C1324      F1325   1.357   1_545  S
C1329      C1330   1.415       .  A
C1329      C1334   1.389       .  A
C1329      F1336   1.359   1_565  S
C1330      C1331   1.401       .  A
C1331      C1332   1.394       .  A
C1331      F1338   1.355       .  S
C1332      C1333   1.398       .  A
C1332      F1337   1.356       .  S
C1333      C1334   1.394       .  A
C1334      F1335   1.358       .  S
C1339      C1340   1.419       .  A
C1339      C1344   1.401       .  A
C1339      F1346   1.360       .  S
C1340      C1341   1.416       .  A
C1341      C1342   1.436       .  A
C1341      F1348   1.356       .  S
C1342      C1343   1.423       .  A
C1342      F1347   1.356       .  S
C1343      C1344   1.405       .  A
C1344      F1345   1.355       .  S
C1349      C1350   1.393   1_545  A
C1349      C1354   1.391       .  A
C1349      F1356   1.355       .  S
C1350      C1351   1.425       .  A
C1351      C1352   1.433       .  A
C1351      F1358   1.356       .  S
C1352      C1353   1.413       .  A
C1352      F1357   1.356       .  S
C1353      C1354   1.430   1_565  A
C1354      F1355   1.358       .  S
C1359      C1360   1.415       .  A
C1359      C1364   1.416       .  A
C1359      F1366   1.358   1_545  S
C1360      C1361   1.419       .  A
C1361      C1362   1.431       .  A
C1361      F1368   1.357       .  S
C1362      C1363   1.420       .  A
C1362      F1367   1.357       .  S
C1363      C1364   1.414       .  A
C1364      F1365   1.356   1_545  S
C1369      C1370   1.409       .  A
C1369      C1374   1.406       .  A
C1369      F1376   1.358       .  S
C1370      C1371   1.412       .  A
C1371      C1372   1.412       .  A
C1371      F1378   1.356       .  S
C1372      C1373   1.409       .  A
C1372      F1377   1.358       .  S
C1373      C1374   1.410       .  A
C1374      F1375   1.358       .  S
C1379      C1380   1.402       .  A
C1379      C1384   1.402       .  A
C1379      F1386   1.355       .  S
C1380      C1381   1.391       .  A
C1381      C1382   1.379       .  A
C1381      F1388   1.356       .  S
C1382      C1383   1.415       .  A
C1382      F1387   1.355       .  S
C1383      C1384   1.402       .  A
C1384      F1385   1.350       .  S
C1389      C1390   1.405   1_565  A
C1389      C1394   1.393       .  A
C1389      F1396   1.340       .  S
C1390      C1391   1.391       .  A
C1391      C1392   1.391       .  A
C1391      F1398   1.357       .  S
C1392      C1393   1.418   1_545  A
C1392      F1397   1.356       .  S
C1393      C1394   1.393       .  A
C1394      F1395   1.357       .  S
C1399      C1400   1.415       .  A
C1399      C1404   1.373       .  A
C1399      F1406   1.354       .  S
C1400      C1401   1.393       .  A
C1401      C1402   1.399       .  A
C1401      F1408   1.347       .  S
C1402      C1403   1.401       .  A
C1402      F1407   1.354       .  S
C1403      C1404   1.389       .  A
C1404      F1405   1.358       .  S
C1409      C1410   1.420       .  A
C1409      C1414   1.434       .  A
C1409      F1416   1.356       .  S
C1410      C1411   1.403       .  A
C1411      C1412   1.405       .  A
C1411      F1418   1.356       .  S
C1412      C1413   1.419       .  A
C1412      F1417   1.360       .  S
C1413      C1414   1.418       .  A
C1414      F1415   1.356       .  S
C1419      C1420   1.418   1_455  A
C1419      C1424   1.421       .  A
C1419      F1426   1.355       .  S
C1420      C1421   1.410       .  A
C1421      C1422   1.418       .  A
C1421      F1428   1.356       .  S
C1422      C1423   1.416       .  A
C1422      F1427   1.357       .  S
C1423      C1424   1.410   1_655  A
C1424      F1425   1.357       .  S
C1429      C1430   1.416       .  A
C1429      C1434   1.410       .  A
C1429      F1436   1.358       .  S
C1430      C1431   1.411       .  A
C1431      C1432   1.421       .  A
C1431      F1438   1.357   1_455  S
C1432      C1433   1.417       .  A
C1432      F1437   1.356   1_455  S
C1433      C1434   1.405       .  A
C1434      F1435   1.357       .  S
C1439      C1440   1.416       .  A
C1439      C1444   1.421       .  A
C1439      F1446   1.357       .  S
C1440      C1441   1.416       .  A
C1441      C1442   1.421       .  A
C1441      F1448   1.358       .  S
C1442      C1443   1.415       .  A
C1442      F1447   1.355       .  S
C1443      C1444   1.412       .  A
C1444      F1445   1.357       .  S
C1449      C1450   1.388       .  A
C1449      C1454   1.383       .  A
C1449      F1456   1.358       .  S
C1450      C1451   1.396       .  A
C1451      C1452   1.383       .  A
C1451      F1458   1.360       .  S
C1452      C1453   1.415       .  A
C1452      F1457   1.360       .  S
C1453      C1454   1.420       .  A
C1454      F1455   1.358       .  S
C1459      C1460   1.407       .  A
C1459      C1464   1.395       .  A
C1459      F1466   1.357       .  S
C1460      C1461   1.412       .  A
C1461      C1462   1.397       .  A
C1461      F1468   1.356       .  S
C1462      C1463   1.400       .  A
C1462      F1467   1.356       .  S
C1463      C1464   1.406       .  A
C1464      F1465   1.355       .  S
C1469      C1470   1.403       .  A
C1469      C1474   1.388       .  A
C1469      F1476   1.356       .  S
C1470      C1471   1.401   1_655  A
C1471      C1472   1.395       .  A
C1471      F1478   1.357       .  S
C1472      C1473   1.402   1_455  A
C1472      F1477   1.355       .  S
C1473      C1474   1.404       .  A
C1474      F1475   1.359       .  S
C1479      C1480   1.406       .  A
C1479      C1484   1.389   1_455  A
C1479      F1486   1.358       .  S
C1480      C1481   1.397       .  A
C1481      C1482   1.395       .  A
C1481      F1488   1.356       .  S
C1482      C1483   1.405       .  A
C1482      F1487   1.358       .  S
C1483      C1484   1.395   1_455  A
C1484      F1485   1.358       .  S
C1489      C1490   1.411   1_556  A
C1489      C1494   1.420       .  A
C1489      F1496   1.357       .  S
C1490      C1491   1.413       .  A
C1491      C1492   1.419       .  A
C1491      F1498   1.357       .  S
C1492      C1493   1.413       .  A
C1492      F1497   1.357       .  S
C1493      C1494   1.414   1_554  A
C1494      F1495   1.357       .  S
C1499      C1500   1.388       .  A
C1499      C1504   1.386   1_554  A
C1499      F1506   1.348   1_554  S
C1500      C1501   1.423       .  A
C1501      C1502   1.427       .  A
C1501      F1508   1.356       .  S
C1502      C1503   1.410       .  A
C1502      F1507   1.356       .  S
C1503      C1504   1.419   1_554  A
C1504      F1505   1.346       .  S
C1509      C1510   1.418       .  A
C1509      C1514   1.440       .  A
C1509      F1516   1.356       .  S
C1510      C1511   1.437       .  A
C1511      C1512   1.396       .  A
C1511      F1518   1.358   1_545  S
C1512      C1513   1.393       .  A
C1512      F1517   1.355   1_545  S
C1513      C1514   1.426       .  A
C1514      F1515   1.356       .  S
C1519      C1520   1.404   1_545  A
C1519      C1524   1.398       .  A
C1519      F1526   1.356       .  S
C1520      C1521   1.418       .  A
C1521      C1522   1.418       .  A
C1521      F1528   1.357       .  S
C1522      C1523   1.408       .  A
C1522      F1527   1.357       .  S
C1523      C1524   1.413   1_565  A
C1524      F1525   1.359       .  S
C1529      C1530   1.416       .  A
C1529      C1534   1.426       .  A
C1529      F1536   1.357       .  S
C1530      C1531   1.410   1_554  A
C1531      C1532   1.406       .  A
C1531      F1538   1.357       .  S
C1532      C1533   1.413   1_556  A
C1532      F1537   1.359       .  S
C1533      C1534   1.416       .  A
C1534      F1535   1.357       .  S
C1539      C1540   1.414       .  A
C1539      C1544   1.430       .  A
C1539      F1546   1.356       .  S
C1540      C1541   1.419       .  A
C1541      C1542   1.395       .  A
C1541      F1548   1.360   1_556  S
C1542      C1543   1.401       .  A
C1542      F1547   1.354       .  S
C1543      C1544   1.425       .  A
C1544      F1545   1.356       .  S
C1549      C1550   1.416       .  A
C1549      C1554   1.428       .  A
C1549      F1556   1.357       .  S
C1550      C1551   1.413       .  A
C1551      C1552   1.406       .  A
C1551      F1558   1.359   1_545  S
C1552      C1553   1.410       .  A
C1552      F1557   1.357   1_545  S
C1553      C1554   1.417       .  A
C1554      F1555   1.357       .  S
C1559      C1560   1.409       .  A
C1559      C1564   1.423       .  A
C1559      F1566   1.357   1_545  S
C1560      C1561   1.419       .  A
C1561      C1562   1.416       .  A
C1561      F1568   1.358       .  S
C1562      C1563   1.408       .  A
C1562      F1567   1.357       .  S
C1563      C1564   1.423       .  A
C1564      F1565   1.357   1_545  S
C1569      C1570   1.414       .  A
C1569      C1574   1.429       .  A
C1569      F1576   1.357       .  S
C1570      C1571   1.419       .  A
C1571      C1572   1.415       .  A
C1571      F1578   1.358       .  S
C1572      C1573   1.408       .  A
C1572      F1577   1.356       .  S
C1573      C1574   1.419       .  A
C1574      F1575   1.356       .  S
C1579      C1580   1.419       .  A
C1579      C1584   1.408       .  A
C1579      F1586   1.358       .  S
C1580      C1581   1.414       .  A
C1581      C1582   1.429       .  A
C1581      F1588   1.357       .  S
C1582      C1583   1.421       .  A
C1582      F1587   1.357       .  S
C1583      C1584   1.406       .  A
C1584      F1585   1.357       .  S
C1589      C1590   1.420       .  A
C1589      C1594   1.444       .  A
C1589      F1596   1.356       .  S
C1590      C1591   1.436       .  A
C1591      C1592   1.411       .  A
C1591      F1598   1.357   1_545  S
C1592      C1593   1.401       .  A
C1592      F1597   1.356   1_545  S
C1593      C1594   1.427       .  A
C1594      F1595   1.356       .  S
C1599      C1600   1.413   1_545  A
C1599      C1604   1.407       .  A
C1599      F1606   1.356       .  S
C1600      C1601   1.410       .  A
C1601      C1602   1.417       .  A
C1601      F1608   1.357       .  S
C1602      C1603   1.412       .  A
C1602      F1607   1.357       .  S
C1603      C1604   1.408   1_565  A
C1604      F1605   1.358       .  S
C1609      C1610   1.385       .  A
C1609      C1614   1.367   1_565  A
C1609      F1616   1.360       .  S
C1610      C1611   1.403       .  A
C1611      C1612   1.389   1_565  A
C1611      F1618   1.354       .  S
C1612      C1613   1.382       .  A
C1612      F1617   1.344       .  S
C1613      C1614   1.418       .  A
C1614      F1615   1.352       .  S
C1619      C1620   1.408       .  A
C1619      C1624   1.394       .  A
C1619      F1626   1.359       .  S
C1620      C1621   1.404       .  A
C1621      C1622   1.402       .  A
C1621      F1628   1.357       .  S
C1622      C1623   1.409       .  A
C1622      F1627   1.357       .  S
C1623      C1624   1.404       .  A
C1624      F1625   1.359       .  S
C1629      C1630   1.417   1_556  A
C1629      C1634   1.413       .  A
C1629      F1636   1.359       .  S
C1630      C1631   1.417       .  A
C1631      C1632   1.428       .  A
C1631      F1638   1.357       .  S
C1632      C1633   1.416       .  A
C1632      F1637   1.357       .  S
C1633      C1634   1.410   1_554  A
C1634      F1635   1.356       .  S
C1639      C1640   1.410       .  A
C1639      C1644   1.406       .  A
C1639      F1646   1.360       .  S
C1640      C1641   1.418       .  A
C1641      C1642   1.425       .  A
C1641      F1648   1.357       .  S
C1642      C1643   1.413       .  A
C1642      F1647   1.357       .  S
C1643      C1644   1.415       .  A
C1644      F1645   1.353       .  S
C1649      C1650   1.416       .  A
C1649      C1654   1.430       .  A
C1649      F1656   1.357       .  S
C1650      C1651   1.413       .  A
C1651      C1652   1.410       .  A
C1651      F1658   1.358       .  S
C1652      C1653   1.412       .  A
C1652      F1657   1.355       .  S
C1653      C1654   1.419       .  A
C1654      F1655   1.356       .  S
C1659      C1660   1.410       .  A
C1659      C1664   1.419       .  A
C1659      F1666   1.357       .  S
C1660      C1661   1.414       .  A
C1661      C1662   1.397       .  A
C1661      F1668   1.359       .  S
C1662      C1663   1.403       .  A
C1662      F1667   1.358       .  S
C1663      C1664   1.416       .  A
C1664      F1665   1.356       .  S
C1669      C1670   1.400       .  A
C1669      C1674   1.385       .  A
C1669      F1676   1.358       .  S
C1670      C1671   1.399       .  A
C1671      C1672   1.387       .  A
C1671      F1678   1.358       .  S
C1672      C1673   1.403       .  A
C1672      F1677   1.358       .  S
C1673      C1674   1.399       .  A
C1674      F1675   1.358       .  S
C1679      C1680   1.404       .  A
C1679      C1684   1.392       .  A
C1679      F1686   1.344       .  S
C1680      C1681   1.406       .  A
C1681      C1682   1.399       .  A
C1681      F1688   1.356       .  S
C1682      C1683   1.396       .  A
C1682      F1687   1.332       .  S
C1683      C1684   1.384       .  A
C1684      F1685   1.354       .  S
C1689      C1690   1.394       .  A
C1689      C1694   1.379   1_554  A
C1689      F1696   1.360       .  S
C1690      C1691   1.411   1_554  A
C1691      C1692   1.382       .  A
C1691      F1698   1.358       .  S
C1692      C1693   1.391       .  A
C1692      F1697   1.358       .  S
C1693      C1694   1.409       .  A
C1694      F1695   1.352   1_556  S
C1699      C1700   1.427       .  A
C1699      C1704   1.425       .  A
C1699      F1706   1.353   1_545  S
C1700      C1701   1.399       .  A
C1701      C1702   1.396       .  A
C1701      F1708   1.358       .  S
C1702      C1703   1.420       .  A
C1702      F1707   1.359       .  S
C1703      C1704   1.407       .  A
C1704      F1705   1.357   1_545  S
C1709      C1710   1.420       .  A
C1709      C1714   1.427       .  A
C1709      F1716   1.357       .  S
C1710      C1711   1.408       .  A
C1711      C1712   1.411       .  A
C1711      F1718   1.357   1_545  S
C1712      C1713   1.419       .  A
C1712      F1717   1.358   1_545  S
C1713      C1714   1.414       .  A
C1714      F1715   1.357       .  S
C1719      C1720   1.428       .  A
C1719      C1724   1.400       .  A
C1719      F1726   1.359       .  S
C1720      C1721   1.420       .  A
C1721      C1722   1.444       .  A
C1721      F1728   1.356       .  S
C1722      C1723   1.430       .  A
C1722      F1727   1.356       .  S
C1723      C1724   1.402       .  A
C1724      F1725   1.357       .  S
C1729      C1730   1.408       .  A
C1729      C1734   1.403       .  A
C1729      F1736   1.352       .  S
C1730      C1731   1.426       .  A
C1731      C1732   1.432       .  A
C1731      F1738   1.356       .  S
C1732      C1733   1.412       .  A
C1732      F1737   1.356       .  S
C1733      C1734   1.419       .  A
C1734      F1735   1.359       .  S
C1739      C1740   1.394       .  A
C1739      C1744   1.377       .  A
C1739      F1746   1.359       .  S
C1740      C1741   1.404       .  A
C1741      C1742   1.393       .  A
C1741      F1748   1.356       .  S
C1742      C1743   1.397       .  A
C1742      F1747   1.349       .  S
C1743      C1744   1.410       .  A
C1744      F1745   1.359       .  S
C1749      C1750   1.395       .  A
C1749      C1754   1.389       .  A
C1749      F1756   1.358       .  S
C1750      C1751   1.414       .  A
C1751      C1752   1.386       .  A
C1751      F1758   1.355       .  S
C1752      C1753   1.377       .  A
C1752      F1757   1.354       .  S
C1753      C1754   1.401       .  A
C1754      F1755   1.336       .  S
C1759      C1760   1.399       .  A
C1759      C1764   1.384       .  A
C1759      F1766   1.356       .  S
C1760      C1761   1.399       .  A
C1761      C1762   1.395       .  A
C1761      F1768   1.358       .  S
C1762      C1763   1.405       .  A
C1762      F1767   1.358       .  S
C1763      C1764   1.393       .  A
C1764      F1765   1.358       .  S
C1769      C1770   1.421       .  A
C1769      C1774   1.431       .  A
C1769      F1776   1.356       .  S
C1770      C1771   1.402   1_554  A
C1771      C1772   1.403       .  A
C1771      F1778   1.357       .  S
C1772      C1773   1.419   1_556  A
C1772      F1777   1.359       .  S
C1773      C1774   1.415       .  A
C1774      F1775   1.356       .  S
C1779      C1780   1.418   1_556  A
C1779      C1784   1.411       .  A
C1779      F1786   1.356       .  S
C1780      C1781   1.405       .  A
C1781      C1782   1.409       .  A
C1781      F1788   1.357       .  S
C1782      C1783   1.417       .  A
C1782      F1787   1.358       .  S
C1783      C1784   1.405   1_554  A
C1784      F1785   1.357       .  S
C1789      C1790   1.410       .  A
C1789      C1794   1.397       .  A
C1789      F1796   1.359       .  S
C1790      C1791   1.410       .  A
C1791      C1792   1.415       .  A
C1791      F1798   1.357       .  S
C1792      C1793   1.412       .  A
C1792      F1797   1.357       .  S
C1793      C1794   1.404       .  A
C1794      F1795   1.358       .  S
C1799      C1800   1.415       .  A
C1799      C1804   1.424       .  A
C1799      F1806   1.357       .  S
C1800      C1801   1.412       .  A
C1801      C1802   1.402       .  A
C1801      F1808   1.353       .  S
C1802      C1803   1.407       .  A
C1802      F1807   1.359       .  S
C1803      C1804   1.413       .  A
C1804      F1805   1.357       .  S
C1809      C1810   1.403       .  A
C1809      C1814   1.381       .  A
C1809      F1816   1.359       .  S
C1810      C1811   1.410       .  A
C1811      C1812   1.394       .  A
C1811      F1818   1.358       .  S
C1812      C1813   1.396       .  A
C1812      F1817   1.359       .  S
C1813      C1814   1.399       .  A
C1814      F1815   1.360       .  S
C1819      C1820   1.404       .  A
C1819      C1824   1.388       .  A
C1819      F1826   1.358       .  S
C1820      C1821   1.393       .  A
C1821      C1822   1.386       .  A
C1821      F1828   1.358       .  S
C1822      C1823   1.405       .  A
C1822      F1827   1.359       .  S
C1823      C1824   1.393       .  A
C1824      F1825   1.358       .  S
C1829      C1830   1.399       .  A
C1829      C1834   1.387       .  A
C1829      F1836   1.357       .  S
C1830      C1831   1.405       .  A
C1831      C1832   1.390       .  A
C1831      F1838   1.352       .  S
C1832      C1833   1.403       .  A
C1832      F1837   1.357       .  S
C1833      C1834   1.402       .  A
C1834      F1835   1.348       .  S
C1839      C1840   1.399       .  A
C1839      C1844   1.396       .  A
C1839      F1846   1.356       .  S
C1840      C1841   1.396       .  A
C1841      C1842   1.402       .  A
C1841      F1848   1.355       .  S
C1842      C1843   1.409       .  A
C1842      F1847   1.355       .  S
C1843      C1844   1.407       .  A
C1844      F1845   1.350       .  S
C1849      C1850   1.404   1_556  A
C1849      C1854   1.398   1_556  A
C1849      F1856   1.357       .  S
C1850      C1851   1.417       .  A
C1851      C1852   1.426       .  A
C1851      F1858   1.357       .  S
C1852      C1853   1.414       .  A
C1852      F1857   1.356       .  S
C1853      C1854   1.415       .  A
C1854      F1855   1.360   1_554  S
C1859      C1860   1.415   1_556  A
C1859      C1864   1.416       .  A
C1859      F1866   1.353       .  S
C1860      C1861   1.416       .  A
C1861      C1862   1.417       .  A
C1861      F1868   1.357       .  S
C1862      C1863   1.412       .  A
C1862      F1867   1.357       .  S
C1863      C1864   1.412   1_554  A
C1864      F1865   1.358       .  S
C1869      C1870   1.414       .  A
C1869      C1874   1.433       .  A
C1869      F1876   1.356       .  S
C1870      C1871   1.430   1_455  A
C1871      C1872   1.393   1_655  A
C1871      F1878   1.359       .  S
C1872      C1873   1.394       .  A
C1872      F1877   1.356   1_455  S
C1873      C1874   1.423       .  A
C1874      F1875   1.356       .  S
C1879      C1880   1.413       .  A
C1879      C1884   1.410       .  A
C1879      F1886   1.359       .  S
C1880      C1881   1.411   1_455  A
C1881      C1882   1.424       .  A
C1881      F1888   1.357       .  S
C1882      C1883   1.421       .  A
C1882      F1887   1.357       .  S
C1883      C1884   1.413   1_655  A
C1884      F1885   1.351       .  S
C1889      C1890   1.412   1_556  A
C1889      C1894   1.407       .  A
C1889      F1896   1.359       .  S
C1890      C1891   1.414       .  A
C1891      C1892   1.423       .  A
C1891      F1898   1.357       .  S
C1892      C1893   1.415       .  A
C1892      F1897   1.357       .  S
C1893      C1894   1.409   1_554  A
C1894      F1895   1.355       .  S
C1899      C1900   1.418       .  A
C1899      C1904   1.399       .  A
C1899      F1906   1.360       .  S
C1900      C1901   1.414   1_655  A
C1901      C1902   1.431       .  A
C1901      F1908   1.356       .  S
C1902      C1903   1.423   1_455  A
C1902      F1907   1.355       .  S
C1903      C1904   1.403       .  A
C1904      F1905   1.357       .  S
C1909      C1910   1.419       .  A
C1909      C1914   1.432       .  A
C1909      F1916   1.356       .  S
C1910      C1911   1.416       .  A
C1911      C1912   1.408       .  A
C1911      F1918   1.354   1_556  S
C1912      C1913   1.411       .  A
C1912      F1917   1.359   1_556  S
C1913      C1914   1.417       .  A
C1914      F1915   1.356       .  S
C1919      C1920   1.411       .  A
C1919      C1924   1.426       .  A
C1919      F1926   1.356       .  S
C1920      C1921   1.416   1_655  A
C1921      C1922   1.403       .  A
C1921      F1928   1.359       .  S
C1922      C1923   1.405   1_455  A
C1922      F1927   1.358       .  S
C1923      C1924   1.420       .  A
C1924      F1925   1.355       .  S
C1929      C1930   1.414       .  A
C1929      C1934   1.423       .  A
C1929      F1936   1.357       .  S
C1930      C1931   1.411       .  A
C1931      C1932   1.406       .  A
C1931      F1938   1.358       .  S
C1932      C1933   1.409       .  A
C1932      F1937   1.357       .  S
C1933      C1934   1.414       .  A
C1934      F1935   1.357       .  S
C1939      C1940   1.416       .  A
C1939      C1944   1.406       .  A
C1939      F1946   1.358       .  S
C1940      C1941   1.416       .  A
C1941      C1942   1.432       .  A
C1941      F1948   1.356       .  S
C1942      C1943   1.420       .  A
C1942      F1947   1.356       .  S
C1943      C1944   1.407       .  A
C1944      F1945   1.355       .  S
C1949      C1950   1.410   1_655  A
C1949      C1954   1.417       .  A
C1949      F1956   1.357       .  S
C1950      C1951   1.417       .  A
C1951      C1952   1.415       .  A
C1951      F1958   1.353       .  S
C1952      C1953   1.409       .  A
C1952      F1957   1.358       .  S
C1953      C1954   1.416   1_455  A
C1954      F1955   1.358       .  S
C1959      C1960   1.416       .  A
C1959      C1964   1.424       .  A
C1959      F1966   1.357       .  S
C1960      C1961   1.415   1_655  A
C1961      C1962   1.410       .  A
C1961      F1968   1.359       .  S
C1962      C1963   1.412   1_455  A
C1962      F1967   1.357       .  S
C1963      C1964   1.416       .  A
C1964      F1965   1.354       .  S
C1969      C1970   1.417       .  A
C1969      C1974   1.394       .  A
C1969      F1976   1.357       .  S
C1970      C1971   1.407       .  A
C1971      C1972   1.391       .  A
C1971      F1978   1.358       .  S
C1972      C1973   1.403       .  A
C1972      F1977   1.357       .  S
C1973      C1974   1.397       .  A
C1974      F1975   1.356       .  S
C1979      C1980   1.392       .  A
C1979      C1984   1.389       .  A
C1979      F1986   1.359       .  S
C1980      C1981   1.405       .  A
C1981      C1982   1.399       .  A
C1981      F1988   1.357       .  S
C1982      C1983   1.409       .  A
C1982      F1987   1.357       .  S
C1983      C1984   1.422       .  A
C1984      F1985   1.360       .  S
C1989      C1990   1.410       .  A
C1989      C1994   1.424       .  A
C1989      F1996   1.356       .  S
C1990      C1991   1.416       .  A
C1991      C1992   1.396       .  A
C1991      F1998   1.359       .  S
C1992      C1993   1.405       .  A
C1992      F1997   1.354       .  S
C1993      C1994   1.421       .  A
C1994      F1995   1.357       .  S
C1999      C2000   1.419       .  A
C1999      C2004   1.440       .  A
C1999      F2006   1.356       .  S
C2000      C2001   1.423       .  A
C2001      C2002   1.399       .  A
C2001      F2008   1.359       .  S
C2002      C2003   1.405       .  A
C2002      F2007   1.357       .  S
C2003      C2004   1.426       .  A
C2004      F2005   1.356       .  S
C2009      C2010   1.411   1_556  A
C2009      C2014   1.407       .  A
C2009      F2016   1.358       .  S
C2010      C2011   1.413       .  A
C2011      C2012   1.423       .  A
C2011      F2018   1.357       .  S
C2012      C2013   1.415       .  A
C2012      F2017   1.357       .  S
C2013      C2014   1.410   1_554  A
C2014      F2015   1.355       .  S
C2019      C2020   1.425       .  A
C2019      C2024   1.398       .  A
C2019      F2026   1.358   1_556  S
C2020      C2021   1.416       .  A
C2021      C2022   1.436       .  A
C2021      F2028   1.356       .  S
C2022      C2023   1.425       .  A
C2022      F2027   1.356       .  S
C2023      C2024   1.397       .  A
C2024      F2025   1.355   1_556  S
C2029      C2030   1.402       .  A
C2029      C2034   1.379       .  A
C2029      F2036   1.359       .  S
C2030      C2031   1.403       .  A
C2031      C2032   1.392       .  A
C2031      F2038   1.357       .  S
C2032      C2033   1.403       .  A
C2032      F2037   1.357       .  S
C2033      C2034   1.399       .  A
C2034      F2035   1.357       .  S
C2039      C2040   1.421       .  A
C2039      C2044   1.374   1_556  A
C2039      F2046   1.356   1_556  S
C2040      C2041   1.394       .  A
C2041      C2042   1.393       .  A
C2041      F2048   1.355       .  S
C2042      C2043   1.401       .  A
C2042      F2047   1.351       .  S
C2043      C2044   1.379   1_556  A
C2044      F2045   1.359       .  S
C2049      C2050   1.405   1_556  A
C2049      C2054   1.386       .  A
C2049      F2056   1.360   1_556  S
C2050      C2051   1.405       .  A
C2051      C2052   1.384   1_554  A
C2051      F2058   1.358       .  S
C2052      C2053   1.403       .  A
C2052      F2057   1.358       .  S
C2053      C2054   1.403       .  A
C2054      F2055   1.358       .  S
C2059      C2060   1.417       .  A
C2059      C2064   1.424       .  A
C2059      F2066   1.357       .  S
C2060      C2061   1.409       .  A
C2061      C2062   1.410       .  A
C2061      F2068   1.359       .  S
C2062      C2063   1.418       .  A
C2062      F2067   1.352       .  S
C2063      C2064   1.413       .  A
C2064      F2065   1.357       .  S
C2069      C2070   1.411       .  A
C2069      C2074   1.409       .  A
C2069      F2076   1.357       .  S
C2070      C2071   1.411   1_655  A
C2071      C2072   1.417       .  A
C2071      F2078   1.357       .  S
C2072      C2073   1.414   1_455  A
C2072      F2077   1.356       .  S
C2073      C2074   1.409       .  A
C2074      F2075   1.357       .  S
C2079      C2080   1.409       .  A
C2079      C2084   1.417       .  A
C2079      F2086   1.357   1_455  S
C2080      C2081   1.417       .  A
C2081      C2082   1.404       .  A
C2081      F2088   1.358       .  S
C2082      C2083   1.400       .  A
C2082      F2087   1.357       .  S
C2083      C2084   1.418       .  A
C2084      F2085   1.355   1_455  S
C2089      C2090   1.412       .  A
C2089      C2094   1.411       .  A
C2089      F2096   1.359       .  S
C2090      C2091   1.415       .  A
C2091      C2092   1.421       .  A
C2091      F2098   1.357       .  S
C2092      C2093   1.413       .  A
C2092      F2097   1.357       .  S
C2093      C2094   1.413       .  A
C2094      F2095   1.353       .  S
C2099      C2100   1.408       .  A
C2099      C2104   1.392       .  A
C2099      F2106   1.355       .  S
C2100      C2101   1.398       .  A
C2101      C2102   1.394       .  A
C2101      F2108   1.358       .  S
C2102      C2103   1.412       .  A
C2102      F2107   1.356       .  S
C2103      C2104   1.402       .  A
C2104      F2105   1.358       .  S
C2109      C2110   1.406   1_655  A
C2109      C2114   1.383       .  A
C2109      F2116   1.357       .  S
C2110      C2111   1.399       .  A
C2111      C2112   1.391       .  A
C2111      F2118   1.357       .  S
C2112      C2113   1.400       .  A
C2112      F2117   1.352       .  S
C2113      C2114   1.399   1_455  A
C2114      F2115   1.358       .  S
C2119      C2120   1.406       .  A
C2119      C2124   1.393   1_455  A
C2119      F2126   1.359   1_455  S
C2120      C2121   1.393       .  A
C2121      C2122   1.392       .  A
C2121      F2128   1.357       .  S
C2122      C2123   1.408   1_455  A
C2122      F2127   1.354       .  S
C2123      C2124   1.399       .  A
C2124      F2125   1.358       .  S
C2129      C2130   1.411       .  A
C2129      C2134   1.419       .  A
C2129      F2136   1.357       .  S
C2130      C2131   1.412   1_554  A
C2131      C2132   1.406       .  A
C2131      F2138   1.358       .  S
C2132      C2133   1.407   1_556  A
C2132      F2137   1.357       .  S
C2133      C2134   1.415       .  A
C2134      F2135   1.357       .  S
C2139      C2140   1.416       .  A
C2139      C2144   1.394       .  A
C2139      F2146   1.360       .  S
C2140      C2141   1.409   1_554  A
C2141      C2142   1.421       .  A
C2141      F2148   1.357       .  S
C2142      C2143   1.419   1_556  A
C2142      F2147   1.357       .  S
C2143      C2144   1.398       .  A
C2144      F2145   1.358       .  S
C2149      C2150   1.426       .  A
C2149      C2154   1.406       .  A
C2149      F2156   1.360       .  S
C2150      C2151   1.418       .  A
C2151      C2152   1.441       .  A
C2151      F2158   1.356       .  S
C2152      C2153   1.428       .  A
C2152      F2157   1.356       .  S
C2153      C2154   1.406       .  A
C2154      F2155   1.357       .  S
C2159      C2160   1.414       .  A
C2159      C2164   1.428       .  A
C2159      F2166   1.356       .  S
C2160      C2161   1.414       .  A
C2161      C2162   1.408       .  A
C2161      F2168   1.358       .  S
C2162      C2163   1.408       .  A
C2162      F2167   1.354       .  S
C2163      C2164   1.419       .  A
C2164      F2165   1.357       .  S
C2169      C2170   1.402       .  A
C2169      C2174   1.395       .  A
C2169      F2176   1.357       .  S
C2170      C2171   1.409       .  A
C2171      C2172   1.391       .  A
C2171      F2178   1.359       .  S
C2172      C2173   1.404       .  A
C2172      F2177   1.359       .  S
C2173      C2174   1.408       .  A
C2174      F2175   1.358       .  S
C2179      C2180   1.403       .  A
C2179      C2184   1.381       .  A
C2179      F2186   1.358       .  S
C2180      C2181   1.402       .  A
C2181      C2182   1.397       .  A
C2181      F2188   1.357       .  S
C2182      C2183   1.406       .  A
C2182      F2187   1.353       .  S
C2183      C2184   1.402       .  A
C2184      F2185   1.359       .  S
C2189      C2190   1.402       .  A
C2189      C2194   1.388       .  A
C2189      F2196   1.346       .  S
C2190      C2191   1.395       .  A
C2191      C2192   1.398       .  A
C2191      F2198   1.352       .  S
C2192      C2193   1.396       .  A
C2192      F2197   1.347       .  S
C2193      C2194   1.403       .  A
C2194      F2195   1.358   1_554  S
C2199      C2200   1.403       .  A
C2199      C2204   1.383       .  A
C2199      F2206   1.356       .  S
C2200      C2201   1.394       .  A
C2201      C2202   1.393       .  A
C2201      F2208   1.358       .  S
C2202      C2203   1.409       .  A
C2202      F2207   1.359       .  S
C2203      C2204   1.388       .  A
C2204      F2205   1.355   1_554  S
C2209      C2210   1.419       .  A
C2209      C2214   1.440       .  A
C2209      F2216   1.356       .  S
C2210      C2211   1.426       .  A
C2211      C2212   1.406       .  A
C2211      F2218   1.358       .  S
C2212      C2213   1.400       .  A
C2212      F2217   1.358       .  S
C2213      C2214   1.425       .  A
C2214      F2215   1.356       .  S
C2219      C2220   1.407       .  A
C2219      C2224   1.404       .  A
C2219      F2226   1.358       .  S
C2220      C2221   1.411       .  A
C2221      C2222   1.420       .  A
C2221      F2228   1.357       .  S
C2222      C2223   1.414       .  A
C2222      F2227   1.357       .  S
C2223      C2224   1.411       .  A
C2224      F2225   1.353       .  S
C2229      C2230   1.415       .  A
C2229      C2234   1.397       .  A
C2229      F2236   1.361       .  S
C2230      C2231   1.418       .  A
C2231      C2232   1.439       .  A
C2231      F2238   1.356       .  S
C2232      C2233   1.424       .  A
C2232      F2237   1.356       .  S
C2233      C2234   1.408       .  A
C2234      F2235   1.351       .  S
C2239      C2240   1.411       .  A
C2239      C2244   1.417       .  A
C2239      F2246   1.356       .  S
C2240      C2241   1.417       .  A
C2241      C2242   1.425       .  A
C2241      F2248   1.357       .  S
C2242      C2243   1.415       .  A
C2242      F2247   1.357       .  S
C2243      C2244   1.411       .  A
C2244      F2245   1.357       .  S
C2249      C2250   1.428       .  A
C2249      C2254   1.409       .  A
C2249      F2256   1.358       .  S
C2250      C2251   1.420       .  A
C2251      C2252   1.443       .  A
C2251      F2258   1.356       .  S
C2252      C2253   1.426       .  A
C2252      F2257   1.356       .  S
C2253      C2254   1.403       .  A
C2254      F2255   1.356       .  S
C2259      C2260   1.412       .  A
C2259      C2264   1.408       .  A
C2259      F2266   1.358       .  S
C2260      C2261   1.413       .  A
C2261      C2262   1.422       .  A
C2261      F2268   1.357       .  S
C2262      C2263   1.414       .  A
C2262      F2267   1.357       .  S
C2263      C2264   1.409       .  A
C2264      F2265   1.355       .  S
C2269      C2270   1.423       .  A
C2269      C2274   1.448       .  A
C2269      F2276   1.356       .  S
C2270      C2271   1.426       .  A
C2271      C2272   1.417       .  A
C2271      F2278   1.358       .  S
C2272      C2273   1.413       .  A
C2272      F2277   1.356       .  S
C2273      C2274   1.429       .  A
C2274      F2275   1.356       .  S
C2279      C2280   1.413       .  A
C2279      C2284   1.427       .  A
C2279      F2286   1.356       .  S
C2280      C2281   1.414       .  A
C2281      C2282   1.404       .  A
C2281      F2288   1.359       .  S
C2282      C2283   1.406       .  A
C2282      F2287   1.354       .  S
C2283      C2284   1.418       .  A
C2284      F2285   1.357       .  S
C2289      C2290   1.387       .  A
C2289      C2294   1.375       .  A
C2289      F2296   1.359       .  S
C2290      C2291   1.401       .  A
C2291      C2292   1.383       .  A
C2291      F2298   1.347       .  S
C2292      C2293   1.393       .  A
C2292      F2297   1.357       .  S
C2293      C2294   1.409       .  A
C2294      F2295   1.358       .  S
C2299      C2300   1.410       .  A
C2299      C2304   1.400       .  A
C2299      F2306   1.358       .  S
C2300      C2301   1.411       .  A
C2301      C2302   1.418       .  A
C2301      F2308   1.357       .  S
C2302      C2303   1.413       .  A
C2302      F2307   1.356       .  S
C2303      C2304   1.404       .  A
C2304      F2305   1.356       .  S
C2309      C2310   1.414       .  A
C2309      C2314   1.405       .  A
C2309      F2316   1.359       .  S
C2310      C2311   1.415       .  A
C2311      C2312   1.425       .  A
C2311      F2318   1.357       .  S
C2312      C2313   1.416       .  A
C2312      F2317   1.356       .  S
C2313      C2314   1.407       .  A
C2314      F2315   1.355       .  S
C2319      C2320   1.412       .  A
C2319      C2324   1.405       .  A
C2319      F2326   1.358       .  S
C2320      C2321   1.407       .  A
C2321      C2322   1.417       .  A
C2321      F2328   1.357       .  S
C2322      C2323   1.419       .  A
C2322      F2327   1.352       .  S
C2323      C2324   1.406       .  A
C2324      F2325   1.357       .  S
C2329      C2330   1.416       .  A
C2329      C2334   1.410       .  A
C2329      F2336   1.359       .  S
C2330      C2331   1.414       .  A
C2331      C2332   1.424       .  A
C2331      F2338   1.357       .  S
C2332      C2333   1.414       .  A
C2332      F2337   1.357       .  S
C2333      C2334   1.408       .  A
C2334      F2335   1.354       .  S
C2339      C2340   1.408       .  A
C2339      C2344   1.393       .  A
C2339      F2346   1.357       .  S
C2340      C2341   1.393       .  A
C2341      C2342   1.388       .  A
C2341      F2348   1.357       .  S
C2342      C2343   1.415       .  A
C2342      F2347   1.358       .  S
C2343      C2344   1.402       .  A
C2344      F2345   1.358       .  S
C2349      C2350   1.415       .  A
C2349      C2354   1.411       .  A
C2349      F2356   1.358       .  S
C2350      C2351   1.416       .  A
C2351      C2352   1.427       .  A
C2351      F2358   1.357       .  S
C2352      C2353   1.419       .  A
C2352      F2357   1.356       .  S
C2353      C2354   1.411       .  A
C2354      F2355   1.356       .  S
C2359      C2360   1.417       .  A
C2359      C2364   1.409       .  A
C2359      F2366   1.359       .  S
C2360      C2361   1.419       .  A
C2361      C2362   1.436       .  A
C2361      F2368   1.356       .  S
C2362      C2363   1.422       .  A
C2362      F2367   1.356       .  S
C2363      C2364   1.412       .  A
C2364      F2365   1.357       .  S
C2369      C2370   1.405       .  A
C2369      C2374   1.401       .  A
C2369      F2376   1.352       .  S
C2370      C2371   1.424       .  A
C2371      C2372   1.438       .  A
C2371      F2378   1.356       .  S
C2372      C2373   1.417       .  A
C2372      F2377   1.356       .  S
C2373      C2374   1.418       .  A
C2374      F2375   1.359       .  S
C2379      C2380   1.408       .  A
C2379      C2384   1.406       .  A
C2379      F2386   1.358       .  S
C2380      C2381   1.410       .  A
C2381      C2382   1.412       .  A
C2381      F2388   1.358       .  S
C2382      C2383   1.409       .  A
C2382      F2387   1.357       .  S
C2383      C2384   1.410       .  A
C2384      F2385   1.357       .  S
C2389      C2390   1.404       .  A
C2389      C2394   1.399       .  A
C2389      F2396   1.358       .  S
C2390      C2391   1.410       .  A
C2391      C2392   1.384       .  A
C2391      F2398   1.357       .  S
C2392      C2393   1.394       .  A
C2392      F2397   1.352       .  S
C2393      C2394   1.409       .  A
C2394      F2395   1.358       .  S
C2399      C2400   1.402       .  A
C2399      C2404   1.388       .  A
C2399      F2406   1.352       .  S
C2400      C2401   1.387       .  A
C2401      C2402   1.379       .  A
C2401      F2408   1.359       .  S
C2402      C2403   1.411       .  A
C2402      F2407   1.357       .  S
C2403      C2404   1.397       .  A
C2404      F2405   1.358       .  S
C2409      C2410   1.418       .  A
C2409      C2414   1.384       .  A
C2409      F2416   1.353       .  S
C2410      C2411   1.398       .  A
C2411      C2412   1.393       .  A
C2411      F2418   1.357       .  S
C2412      C2413   1.399       .  A
C2412      F2417   1.346       .  S
C2413      C2414   1.391       .  A
C2414      F2415   1.358       .  S
C2419      C2420   1.408       .  A
C2419      C2424   1.418       .  A
C2419      F2426   1.357       .  S
C2420      C2421   1.413       .  A
C2421      C2422   1.398       .  A
C2421      F2428   1.359       .  S
C2422      C2423   1.404       .  A
C2422      F2427   1.358       .  S
C2423      C2424   1.417       .  A
C2424      F2425   1.356       .  S
C2429      C2430   1.411       .  A
C2429      C2434   1.410       .  A
C2429      F2436   1.358       .  S
C2430      C2431   1.407       .  A
C2431      C2432   1.412       .  A
C2431      F2438   1.358       .  S
C2432      C2433   1.417       .  A
C2432      F2437   1.352       .  S
C2433      C2434   1.412       .  A
C2434      F2435   1.358       .  S
C2439      C2440   1.422       .  A
C2439      C2444   1.433       .  A
C2439      F2446   1.357       .  S
C2440      C2441   1.423       .  A
C2441      C2442   1.421       .  A
C2441      F2448   1.358       .  S
C2442      C2443   1.414       .  A
C2442      F2447   1.356       .  S
C2443      C2444   1.421       .  A
C2444      F2445   1.357       .  S
C2449      C2450   1.416       .  A
C2449      C2454   1.427       .  A
C2449      F2456   1.357       .  S
C2450      C2451   1.417       .  A
C2451      C2452   1.418       .  A
C2451      F2458   1.358       .  S
C2452      C2453   1.411       .  A
C2452      F2457   1.357       .  S
C2453      C2454   1.419       .  A
C2454      F2455   1.357       .  S
C2459      C2460   1.414       .  A
C2459      C2464   1.382       .  A
C2459      F2466   1.361       .  S
C2460      C2461   1.401       .  A
C2461      C2462   1.394       .  A
C2461      F2468   1.358       .  S
C2462      C2463   1.408       .  A
C2462      F2467   1.355       .  S
C2463      C2464   1.388       .  A
C2464      F2465   1.355       .  S
C2469      C2470   1.400       .  A
C2469      C2474   1.381       .  A
C2469      F2476   1.360       .  S
C2470      C2471   1.404       .  A
C2471      C2472   1.392       .  A
C2471      F2478   1.357       .  S
C2472      C2473   1.404       .  A
C2472      F2477   1.357       .  S
C2473      C2474   1.410       .  A
C2474      F2475   1.360       .  S
C2479      C2480   1.403       .  A
C2479      C2484   1.388       .  A
C2479      F2486   1.358       .  S
C2480      C2481   1.404       .  A
C2481      C2482   1.386       .  A
C2481      F2488   1.358       .  S
C2482      C2483   1.396       .  A
C2482      F2487   1.358       .  S
C2483      C2484   1.404       .  A
C2484      F2485   1.358       .  S
C2489      C2490   1.409       .  A
C2489      C2494   1.426       .  A
C2489      F2496   1.357       .  S
C2490      C2491   1.419       .  A
C2491      C2492   1.404       .  A
C2491      F2498   1.359       .  S
C2492      C2493   1.405       .  A
C2492      F2497   1.358       .  S
C2493      C2494   1.424       .  A
C2494      F2495   1.353       .  S
C2499      C2500   1.411       .  A
C2499      C2504   1.420       .  A
C2499      F2506   1.357       .  S
C2500      C2501   1.415       .  A
C2501      C2502   1.407       .  A
C2501      F2508   1.358       .  S
C2502      C2503   1.405       .  A
C2502      F2507   1.357       .  S
C2503      C2504   1.416       .  A
C2504      F2505   1.356       .  S
C2509      C2510   1.414       .  A
C2509      C2514   1.418       .  A
C2509      F2516   1.357       .  S
C2510      C2511   1.416       .  A
C2511      C2512   1.411       .  A
C2511      F2518   1.359       .  S
C2512      C2513   1.412       .  A
C2512      F2517   1.356       .  S
C2513      C2514   1.411       .  A
C2514      F2515   1.357       .  S
C2519      C2520   1.410       .  A
C2519      C2524   1.402       .  A
C2519      F2526   1.359       .  S
C2520      C2521   1.411       .  A
C2521      C2522   1.422       .  A
C2521      F2528   1.357       .  S
C2522      C2523   1.417       .  A
C2522      F2527   1.357       .  S
C2523      C2524   1.408       .  A
C2524      F2525   1.354       .  S
C2529      C2530   1.410       .  A
C2529      C2534   1.405       .  A
C2529      F2536   1.357       .  S
C2530      C2531   1.410       .  A
C2531      C2532   1.389       .  A
C2531      F2538   1.350       .  S
C2532      C2533   1.394       .  A
C2532      F2537   1.348       .  S
C2533      C2534   1.405       .  A
C2534      F2535   1.354       .  S
C2539      C2540   1.406       .  A
C2539      C2544   1.404       .  A
C2539      F2546   1.351       .  S
C2540      C2541   1.424       .  A
C2541      C2542   1.395       .  A
C2541      F2548   1.354       .  S
C2542      C2543   1.392       .  A
C2542      F2547   1.357       .  S
C2543      C2544   1.406       .  A
C2544      F2545   1.355       .  S
C2549      C2550   1.399       .  A
C2549      C2554   1.388       .  A
C2549      F2556   1.357       .  S
C2550      C2551   1.403       .  A
C2551      C2552   1.380       .  A
C2551      F2558   1.359       .  S
C2552      C2553   1.396       .  A
C2552      F2557   1.359       .  S
C2553      C2554   1.397       .  A
C2554      F2555   1.357       .  S
C2559      C2560   1.404       .  A
C2559      C2564   1.393       .  A
C2559      F2566   1.356       .  S
C2560      C2561   1.399       .  A
C2561      C2562   1.389       .  A
C2561      F2568   1.357       .  S
C2562      C2563   1.404       .  A
C2562      F2567   1.358       .  S
C2563      C2564   1.400       .  A
C2564      F2565   1.358       .  S
