geometry optimzed in LAMMPS
_audit_creation_date              2020-12-01 
_audit_creation_method            'lammps2cif' 
_symmetry_space_group_name_H-M    'P1' 
_symmetry_Int_Tables_number       1 
_symmetry_cell_setting            triclinic 
loop_ 
_symmetry_equiv_pos_as_xyz 
  x,y,z 
_cell_length_a                    45.85600028 
_cell_length_b                    45.063999597169925 
_cell_length_c                    26.294677860589882 
_cell_angle_alpha                 90.0003252636136 
_cell_angle_beta                  89.99979639538975 
_cell_angle_gamma                 89.98333069629987 
loop_ 
_atom_site_label 
_atom_site_type_symbol 
_atom_site_fract_x 
_atom_site_fract_y 
_atom_site_fract_z 
_atom_site_charge 
O1          O  0.18488598  0.19407281  0.42711776    -0.73100
O2          O  0.21236711  0.21860703  0.36806467    -0.52000
C3          C  0.19197422  0.20070322  0.38119427     0.80600
O4          O  0.18828479  0.30943873  0.59890735    -0.57700
O5          O  0.21372105  0.28278940  0.65807834    -0.50700
C6          C  0.19500928  0.30251259  0.64485397     0.72600
O7          O  0.18596899  0.30710148  0.42760442    -0.72300
O8          O  0.21234214  0.28142996  0.36839326    -0.52800
C9          C  0.19262890  0.30010894  0.38164044     0.78600
O10         O  0.18717305  0.19087958  0.59853574    -0.57400
O11         O  0.21254925  0.21752244  0.65780799    -0.50500
C12         C  0.19360551  0.19805330  0.64452822     0.75200
Zr13       Zr  0.20154129  0.20569575  0.51291583     2.54700
O14         O  0.14847568  0.20593024  0.51488731    -0.78000
O15         O  0.20300099  0.15167747  0.51024941    -0.91400
Zr16       Zr  0.20161775  0.29387784  0.51325261     2.64700
O17         O  0.14851615  0.29220912  0.51378548    -0.96400
O18         O  0.20219702  0.34788882  0.51236261    -0.78400
O19         O  0.20111805  0.24985634  0.46405455    -0.81800
O20         O  0.20078535  0.24974613  0.56226099    -2.16500
O21         O  0.30243493  0.19104874  0.59911367    -0.65200
O22         O  0.27639070  0.21694740  0.65843222    -0.49700
C23         C  0.29558735  0.19770365  0.64514232     0.73600
O24         O  0.30476326  0.30624795  0.42782960    -0.58100
O25         O  0.27729786  0.28201836  0.36839975    -0.50100
C26         C  0.29763701  0.29996963  0.38176906     0.75400
O27         O  0.30204134  0.30855000  0.59932734    -0.69500
O28         O  0.27673085  0.28174741  0.65846619    -0.48100
C29         C  0.29556765  0.30134638  0.64528873     0.76800
O30         O  0.30410037  0.19273078  0.42745392    -0.64800
O31         O  0.27759132  0.21819400  0.36816848    -0.52000
C32         C  0.29742284  0.19963036  0.38143227     0.75200
Zr33       Zr  0.28812036  0.20555043  0.51321861     2.77500
O34         O  0.34123237  0.20518382  0.51321415    -0.95500
O35         O  0.28586925  0.15158934  0.51336185    -0.76400
Zr36       Zr  0.28816004  0.29384045  0.51335957     2.70100
O37         O  0.34119733  0.29387019  0.51639071    -0.77600
O38         O  0.28572690  0.34775951  0.50905957    -0.96700
Zr39       Zr  0.24504801  0.24988815  0.41604596     2.21500
Zr40       Zr  0.24483380  0.24962236  0.61036582     2.11100
O41         O  0.28885665  0.24966019  0.56227258    -2.45400
O42         O  0.28888114  0.24973981  0.46428941    -0.77400
O43         O  0.24477697  0.20480072  0.56245947    -0.69600
O44         O  0.24493550  0.29476033  0.46394059    -2.30600
O45         O  0.24490156  0.20480970  0.46358362    -2.26800
O46         O  0.24488177  0.29451974  0.56267447    -0.71400
H47         H  0.18385810  0.24979993  0.58424838     0.80600
H48         H  0.24499457  0.31187778  0.44184560     0.81700
H49         H  0.30575585  0.24966615  0.58427604     0.83900
H50         H  0.24491764  0.18779138  0.44129892     0.81600
H51         H  0.22069552  0.35316644  0.49520120     0.44600
H52         H  0.27866830  0.35401981  0.54298777     0.43600
H53         H  0.34687517  0.27453157  0.50150372     0.43200
H54         H  0.34687170  0.21911847  0.54060934     0.41200
H55         H  0.27098186  0.14673709  0.53934279     0.44300
H56         H  0.21694152  0.14683277  0.48272744     0.39100
H57         H  0.14301377  0.22596488  0.50270648     0.45200
H58         H  0.14320973  0.28442135  0.54775400     0.41600
H59         H  0.34659479  0.18534566  0.52643814     0.46500
H60         H  0.18373551  0.14583016  0.49650769     0.45300
H61         H  0.14244443  0.31329148  0.51457529     0.45400
H62         H  0.30635803  0.35421173  0.50806083     0.45800
C63         C  0.34327925  0.34579825  0.75236078     0.88700
C64         C  0.36231577  0.32607402  0.78659534    -0.51600
C65         C  0.37930082  0.34194485  0.81934193     0.11600
C66         C  0.37563069  0.37568767  0.81505384     0.22500
C67         C  0.32568054  0.36550945  0.78879162    -0.52300
C68         C  0.34283652  0.38118890  0.82147734     0.11700
C69         C  0.36469790  0.36692701  0.72574401    -0.51800
C70         C  0.38157316  0.38251045  0.75896721     0.12300
H71         H  0.36272113  0.30200056  0.78450310     0.16800
H72         H  0.38950283  0.38857290  0.84181131     0.02500
H73         H  0.30206010  0.36737790  0.78807046     0.17100
H74         H  0.36626748  0.36941313  0.68473000     0.16900
C75         C  0.34341930  0.15304110  0.75220156     0.88700
C76         C  0.32626157  0.13293458  0.78869757    -0.51600
C77         C  0.34375610  0.11776215  0.82161999     0.11600
C78         C  0.37639565  0.12418130  0.81542201     0.22500
C79         C  0.36187670  0.17333249  0.78637100    -0.52300
C80         C  0.37919856  0.15803218  0.81935318     0.11700
C81         C  0.36541919  0.13235140  0.72594920    -0.51800
C82         C  0.38258380  0.11729032  0.75946798     0.12300
H83         H  0.30272124  0.13029182  0.78761534     0.16800
H84         H  0.39054382  0.11174533  0.84237917     0.02500
H85         H  0.36171063  0.19740032  0.78398019     0.17100
H86         H  0.36700139  0.12958864  0.68499124     0.16900
C87         C  0.14746906  0.34708367  0.75188356     0.88700
C88         C  0.16475722  0.36680600  0.78873777    -0.51600
C89         C  0.14736963  0.38226341  0.82138809     0.11600
C90         C  0.11463470  0.37654310  0.81441793     0.22500
C91         C  0.12839471  0.32711062  0.78563759    -0.52300
C92         C  0.11113364  0.34276663  0.81828136     0.11700
C93         C  0.12604889  0.36811551  0.72515790    -0.51800
C94         C  0.10893723  0.38344850  0.75829465     0.12300
H95         H  0.18836145  0.36886267  0.78828887     0.16800
H96         H  0.10052782  0.38926010  0.84105049     0.02500
H97         H  0.12813618  0.30304520  0.78323990     0.17100
H98         H  0.12464566  0.37073664  0.68414435     0.16900
C99         C  0.14583984  0.15448478  0.75254610     0.88700
C100        C  0.12688570  0.17452344  0.78631846    -0.51600
C101        C  0.10986113  0.15894229  0.81938139     0.11600
C102        C  0.11337307  0.12513678  0.81580418     0.22500
C103        C  0.16335510  0.13493132  0.78938050    -0.52300
C104        C  0.14613835  0.11947881  0.82231436     0.11700
C105        C  0.12439214  0.13326950  0.72635904    -0.51800
C106        C  0.10749019  0.11796400  0.75983481     0.12300
H107        H  0.12656577  0.19858264  0.78371578     0.16800
H108        H  0.09942731  0.11247261  0.84275849     0.00800
H109        H  0.18694799  0.13279347  0.78844089     0.17100
H110        H  0.12296220  0.13035376  0.68541083     0.16900
N111        N  0.49549228  0.45440504  0.72992066    -0.34400
N112        N  0.04057811  0.99980241  0.73050111    -0.55000
N113        N  0.49599406  0.04478839  0.73178433    -0.34400
N114        N  0.45091850  0.99985971  0.73174859    -0.55000
C115        C  0.01896448  0.43867258  0.72020724     0.29200
C116        C  0.47169121  0.43775213  0.71978259     0.29200
C117        C  0.01900854  0.06098026  0.71991541     0.29100
C118        C  0.47219976  0.06127312  0.72083708     0.29100
C119        C  0.05657154  0.47607960  0.74187707     0.37800
C120        C  0.05695702  0.02389200  0.74091010     0.37800
C121        C  0.43422161  0.47537636  0.74119395     0.37800
C122        C  0.43452519  0.02390469  0.74248298     0.37800
C123        C  0.01028951  0.41144712  0.70078704    -0.19700
C124        C  0.48029987  0.41024515  0.70145782    -0.19700
C125        C  0.01005045  0.08823238  0.70102342    -0.19700
C126        C  0.48079946  0.08860641  0.70178377    -0.19700
C127        C  0.08359084  0.48471409  0.76048535    -0.20800
C128        C  0.08420872  0.01537994  0.75856537    -0.20800
C129        C  0.40716114  0.48418117  0.75931008    -0.20800
C130        C  0.40726554  0.01526229  0.75991413    -0.20800
C131        C  0.04792563  0.44672459  0.73163492    -0.16100
C132        C  0.44277673  0.44588178  0.73160447    -0.16100
C133        C  0.44328060  0.05332129  0.73284002    -0.16100
C134        C  0.04802070  0.05323911  0.73138454    -0.16100
H135        H  0.02417403  0.39333585  0.68874242     0.16800
H136        H  0.46640911  0.39179667  0.69107803     0.16800
H137        H  0.02372660  0.10660786  0.68946852     0.16800
H138        H  0.46689056  0.10688975  0.69062281     0.16800
H139        H  0.10145995  0.47054157  0.77206868     0.15100
H140        H  0.10219134  0.02961627  0.76931304     0.15100
H141        H  0.38916284  0.47012607  0.77064489     0.15100
H142        H  0.38923481  0.02942911  0.77070954     0.15100
H143        H  0.49568581  0.47409253  0.75046872     0.28300
H144        H  0.49611435  0.02532585  0.75298522     0.28300
C145        C  0.34530247  0.34402522  0.27371436     0.88700
C146        C  0.32661463  0.36343687  0.23843484    -0.51600
C147        C  0.34282268  0.37973935  0.20519288     0.11600
C148        C  0.37578904  0.37500615  0.20971184     0.22500
C149        C  0.36432777  0.32493705  0.23828017    -0.52300
C150        C  0.38035532  0.34142874  0.20486093     0.11700
C151        C  0.36660187  0.36567886  0.29941761    -0.51800
C152        C  0.38244474  0.38182546  0.26543159     0.12300
H153        H  0.30300783  0.36498766  0.24081730     0.16800
H154        H  0.38885661  0.38839584  0.18244407     0.02500
H155        H  0.36552072  0.30088919  0.24024656     0.17100
H156        H  0.36874385  0.36819561  0.34034426     0.16900
C157        C  0.14557188  0.34450972  0.27362376     0.88700
C158        C  0.12417171  0.36581757  0.29977949    -0.51600
C159        C  0.10819751  0.38204808  0.26617753     0.11600
C160        C  0.11480585  0.37562379  0.21027156     0.22500
C161        C  0.12670461  0.32547619  0.23799587    -0.52300
C162        C  0.11057025  0.34202572  0.20489432     0.11700
C163        C  0.16409949  0.36425878  0.23859083    -0.51800
C164        C  0.14773131  0.38063484  0.20562666     0.12300
H165        H  0.12208698  0.36809836  0.34076128     0.16800
H166        H  0.10157242  0.38904866  0.18328946     0.02500
H167        H  0.12574068  0.30140419  0.23950898     0.17100
H168        H  0.18770196  0.36588338  0.24082589     0.16900
N169        N  0.45117099  0.31536329  0.01044992    -0.34400
N170        N  0.49581709  0.31428179  0.08880288    -0.55000
N171        N  0.03991016  0.31561623  0.00994081    -0.34400
N172        N  0.49516122  0.31180546  0.93031425    -0.55000
C173        C  0.43464776  0.31078179  0.05234917     0.29200
C174        C  0.43429889  0.30952295  0.96949329     0.29200
C175        C  0.05687262  0.31210952  0.05160101     0.29100
C176        C  0.05687199  0.31083800  0.96866871     0.29100
C177        C  0.47242053  0.32081123  0.11804908     0.37800
C178        C  0.01915193  0.32160254  0.11823018     0.37800
C179        C  0.47135256  0.31724312  0.90143930     0.37800
C180        C  0.01911660  0.31781464  0.90135200     0.37800
C181        C  0.40694989  0.30176867  0.03784615    -0.19700
C182        C  0.40672554  0.30099016  0.98551248    -0.19700
C183        C  0.08499250  0.30482623  0.03658473    -0.19700
C184        C  0.08499507  0.30404953  0.98426944    -0.19700
C185        C  0.48144208  0.33002094  0.16583427    -0.20800
C186        C  0.01050192  0.33009560  0.16666634    -0.20800
C187        C  0.47971328  0.32486502  0.85246148    -0.20800
C188        C  0.01034683  0.32553904  0.85262914    -0.20800
C189        C  0.44308107  0.31735387  0.10277349    -0.16100
C190        C  0.44220169  0.31484391  0.91840204    -0.16100
C191        C  0.04842717  0.31562235  0.91762537    -0.16100
C192        C  0.04839338  0.31811053  0.10229442    -0.16100
H193        H  0.38861100  0.29693806  0.06240308     0.16800
H194        H  0.38818167  0.29544948  0.96188230     0.16800
H195        H  0.10377473  0.30126704  0.06076335     0.16800
H196        H  0.10376494  0.29978275  0.96039675     0.16800
H197        H  0.46788416  0.33649219  0.19766155     0.15100
H198        H  0.02430644  0.33555377  0.19872357     0.15100
H199        H  0.46571403  0.33020475  0.82060025     0.15100
H200        H  0.02407549  0.33095931  0.82045755     0.15100
H201        H  0.47115305  0.32615054  0.00960875     0.28300
H202        H  0.01926759  0.32492261  0.00943921     0.28300
C203        C  0.14469818  0.15656381  0.27340766     0.88700
C204        C  0.16310166  0.13653140  0.23859347    -0.51600
C205        C  0.14657569  0.12005972  0.20600374     0.11600
C206        C  0.11370731  0.12521746  0.21079740     0.22500
C207        C  0.12588586  0.17546773  0.23754549    -0.52300
C208        C  0.10964990  0.15879610  0.20484612     0.11700
C209        C  0.12327635  0.13548486  0.30005762    -0.51800
C210        C  0.10722445  0.11907681  0.26682961     0.12300
H211        H  0.18671053  0.13488524  0.24056937     0.16800
H212        H  0.10037907  0.11170478  0.18409556     0.02500
H213        H  0.12509860  0.19955801  0.23849042     0.17100
H214        H  0.12137456  0.13334793  0.34108802     0.16900
N215        N  0.45122889  0.99974086  0.29444704    -0.34400
N216        N  0.49589217  0.04546166  0.29413872    -0.55000
N217        N  0.04039050  0.00008027  0.29657394    -0.34400
N218        N  0.49582308  0.45435026  0.29406449    -0.55000
C219        C  0.43484709  0.02394150  0.28404637     0.29200
C220        C  0.43457187  0.47572282  0.28497653     0.29200
C221        C  0.05671399  0.02438284  0.28665078     0.29100
C222        C  0.05662426  0.47586665  0.28671952     0.29100
C223        C  0.47224076  0.06296305  0.29993739     0.37800
C224        C  0.01877075  0.06303138  0.30155361     0.37800
C225        C  0.47224247  0.43659719  0.29843635     0.37800
C226        C  0.01882787  0.43694216  0.30092237     0.37800
C227        C  0.40770045  0.01511021  0.26629520    -0.19700
C228        C  0.40723744  0.48474877  0.26840021    -0.19700
C229        C  0.08420317  0.01568837  0.27031710    -0.19700
C230        C  0.08403551  0.48471949  0.27021557    -0.19700
C231        C  0.48070514  0.09200337  0.30928431    -0.20800
C232        C  0.00995362  0.09186112  0.31184026    -0.20800
C233        C  0.48086082  0.40743440  0.30607561    -0.20800
C234        C  0.01014110  0.40793358  0.31002594    -0.20800
C235        C  0.44324874  0.05368657  0.29235387    -0.16100
C236        C  0.44318317  0.44586231  0.29125355    -0.16100
C237        C  0.04790638  0.44608958  0.29368719    -0.16100
C238        C  0.04788053  0.05410490  0.29400827    -0.16100
H239        H  0.38966205  0.02917766  0.25517310     0.16800
H240        H  0.38914483  0.47082266  0.25705851     0.16800
H241        H  0.10232940  0.02984618  0.26003493     0.16800
H242        H  0.10217663  0.47066959  0.25953590     0.16800
H243        H  0.46682705  0.11121008  0.31437904     0.15100
H244        H  0.02361519  0.11114239  0.31772704     0.15100
H245        H  0.46708717  0.38804627  0.30971074     0.15100
H246        H  0.02390545  0.38866433  0.31535137     0.15100
H247        H  0.47101324  0.99964317  0.31360449     0.28300
H248        H  0.02026238  0.99987431  0.31459406     0.28300
N249        N  0.17080279  0.45531530  0.01547872    -0.34400
N250        N  0.17089179  0.00073812  0.93560490    -0.55000
N251        N  0.16878744  0.04570893  0.01474245    -0.34400
N252        N  0.16986936  0.00078283  0.09367131    -0.55000
C253        C  0.17646947  0.43845719  0.97411129     0.29200
C254        C  0.17668597  0.43862665  0.05695412     0.29200
C255        C  0.17443296  0.06260090  0.97342977     0.29100
C256        C  0.17412728  0.06258247  0.05622207     0.29100
C257        C  0.16604067  0.47603071  0.90739333     0.37800
C258        C  0.16521084  0.02476334  0.90650753     0.37800
C259        C  0.16510817  0.47614064  0.12325370     0.37800
C260        C  0.16374974  0.02475673  0.12257081     0.37800
C261        C  0.18634611  0.41077387  0.98940829    -0.19700
C262        C  0.18654720  0.41089800  0.04176498    -0.19700
C263        C  0.18359664  0.09052843  0.98878356    -0.19700
C264        C  0.18342387  0.09051324  0.04109885    -0.19700
C265        C  0.15733404  0.48471707  0.85911239    -0.20800
C266        C  0.15693799  0.01597813  0.85805977    -0.20800
C267        C  0.15529786  0.48477589  0.17092487    -0.20800
C268        C  0.15458510  0.01591582  0.17050351    -0.20800
C269        C  0.16989381  0.44641601  0.92348994    -0.16100
C270        C  0.17002103  0.44660781  0.10754921    -0.16100
C271        C  0.16790863  0.05438442  0.10685728    -0.16100
C272        C  0.16852441  0.05443936  0.92268349    -0.16100
H273        H  0.19205193  0.39217151  0.96534129     0.16800
H274        H  0.19237828  0.39237125  0.06591570     0.16800
H275        H  0.18914588  0.10919468  0.96475669     0.16800
H276        H  0.18879538  0.10918036  0.06524798     0.16800
H277        H  0.15178413  0.47058809  0.82726297     0.15100
H278        H  0.15138911  0.03005082  0.82613411     0.15100
H279        H  0.14935900  0.47059441  0.20248770     0.15100
H280        H  0.14855559  0.02996395  0.20219426     0.15100
H281        H  0.15930302  0.47516189  0.01540818     0.28300
H282        H  0.15778829  0.02557972  0.01454617     0.28300
N283        N  0.45033453  0.18574615  0.01056932    -0.34400
N284        N  0.49498740  0.18506922  0.08954818    -0.55000
N285        N  0.03880921  0.18547655  0.01061129    -0.34400
N286        N  0.49437151  0.18910280  0.93126255    -0.55000
C287        C  0.43358870  0.18928341  0.05244591     0.29200
C288        C  0.43331396  0.19111652  0.96958931     0.29200
C289        C  0.05548927  0.19017147  0.05221909     0.29100
C290        C  0.05533384  0.19170169  0.96943057     0.29100
C291        C  0.47139624  0.17881968  0.11841033     0.37800
C292        C  0.01849298  0.17810985  0.11824341     0.37800
C293        C  0.47069913  0.18379700  0.90196585     0.37800
C294        C  0.01816057  0.18223745  0.90241457     0.37800
C295        C  0.40555788  0.19723090  0.03790659    -0.19700
C296        C  0.40538386  0.19837303  0.98559891    -0.19700
C297        C  0.08293418  0.19977755  0.03734551    -0.19700
C298        C  0.08283752  0.20073469  0.98501270    -0.19700
C299        C  0.48013426  0.16937759  0.16627409    -0.20800
C300        C  0.01010986  0.16792692  0.16583761    -0.20800
C301        C  0.47929282  0.17578270  0.85329310    -0.20800
C302        C  0.00969263  0.17362270  0.85397622    -0.20800
C303        C  0.44212277  0.18250173  0.10278202    -0.16100
C304        C  0.44146695  0.18624580  0.91846937    -0.16100
C305        C  0.04729608  0.18592740  0.91859336    -0.16100
C306        C  0.04753829  0.18284128  0.10252051    -0.16100
H307        H  0.38693233  0.20094373  0.06238393     0.16800
H308        H  0.38661734  0.20312579  0.96198656     0.16800
H309        H  0.10137516  0.20469290  0.06162054     0.16800
H310        H  0.10118719  0.20652173  0.96109521     0.16800
H311        H  0.46638252  0.16304827  0.19792487     0.15100
H312        H  0.02408128  0.16153157  0.19716442     0.15100
H313        H  0.46545059  0.17033828  0.82127929     0.15100
H314        H  0.02361682  0.16827182  0.82202195     0.15100
H315        H  0.47073197  0.17586865  0.00974999     0.28300
H316        H  0.01907751  0.17423436  0.01005624     0.28300
C317        C  0.34515105  0.15518037  0.27400500     0.88700
C318        C  0.36387958  0.17422533  0.23815580    -0.51600
C319        C  0.38025984  0.15768294  0.20540990     0.11600
C320        C  0.37637054  0.12408126  0.21124165     0.22500
C321        C  0.32691684  0.13503095  0.23909234    -0.52300
C322        C  0.34353021  0.11870235  0.20638585     0.11700
C323        C  0.36675370  0.13422088  0.30057854    -0.51800
C324        C  0.38291276  0.11795028  0.26725079     0.12300
H325        H  0.36454146  0.19831630  0.23920636     0.16800
H326        H  0.38979665  0.11067992  0.18451157     0.02500
H327        H  0.30331843  0.13325873  0.24101804     0.17100
H328        H  0.36873350  0.13210020  0.34159994     0.16900
N329        N  0.32104986  0.04414214  0.01474671    -0.34400
N330        N  0.31965613  0.49903262  0.93631441    -0.55000
N331        N  0.31983103  0.45422260  0.01541709    -0.34400
N332        N  0.31912529  0.49919515  0.09415511    -0.55000
C333        C  0.31591445  0.06093702  0.97311959     0.29200
C334        C  0.31557463  0.06118191  0.05599180     0.29200
C335        C  0.31430758  0.43737312  0.97401871     0.29100
C336        C  0.31389678  0.43752664  0.05682056     0.29100
C337        C  0.32651278  0.02293480  0.90692707     0.37800
C338        C  0.32576631  0.47491478  0.90777859     0.37800
C339        C  0.32607755  0.02352451  0.12255297     0.37800
C340        C  0.32523800  0.47516669  0.12290601     0.37800
C341        C  0.30680478  0.08898112  0.98804538    -0.19700
C342        C  0.30658462  0.08913470  0.04040023    -0.19700
C343        C  0.30450298  0.40963975  0.98923544    -0.19700
C344        C  0.30422355  0.40974027  0.04159019    -0.19700
C345        C  0.33575519  0.01408623  0.85903179    -0.20800
C346        C  0.33559866  0.48353542  0.86012690    -0.20800
C347        C  0.33583476  0.01479297  0.17018266    -0.20800
C348        C  0.33529897  0.48393211  0.17033733    -0.20800
C349        C  0.32246877  0.05262457  0.92261951    -0.16100
C350        C  0.32176582  0.05314607  0.10675913    -0.16100
C351        C  0.32039728  0.44560422  0.10738671    -0.16100
C352        C  0.32110498  0.44536474  0.92352104    -0.16100
H353        H  0.30173371  0.10767168  0.96374526     0.16800
H354        H  0.30133079  0.10796703  0.06425849     0.16800
H355        H  0.29899255  0.39099035  0.96514247     0.16800
H356        H  0.29848558  0.39116764  0.06570189     0.16800
H357        H  0.34176219  0.02812595  0.82732712     0.15100
H358        H  0.34177349  0.46935148  0.82870145     0.15100
H359        H  0.34212303  0.02891687  0.20161113     0.15100
H360        H  0.34155870  0.46982984  0.20182102     0.15100
H361        H  0.33197151  0.02397574  0.01497622     0.28300
H362        H  0.33127855  0.47409495  0.01546816     0.28300
C363        C  0.32574776  0.07675941  0.14353927    -0.11100
C364        C  0.33197419  0.09642492  0.17267697    -0.12700
C365        C  0.40086401  0.17013351  0.17006000    -0.11100
C366        C  0.41933145  0.17734031  0.13988792    -0.12700
C367        C  0.42113801  0.07639773  0.28903855    -0.11100
C368        C  0.40348751  0.09570185  0.28232661    -0.12700
C369        C  0.08911525  0.17112714  0.16934552    -0.11100
C370        C  0.07059612  0.17816246  0.13920540    -0.12700
C371        C  0.15818314  0.09768263  0.17270827    -0.11100
C372        C  0.16419907  0.07789512  0.14377375    -0.12700
C373        C  0.08695136  0.09661193  0.28218483    -0.11100
C374        C  0.06962084  0.07712077  0.28974377    -0.12700
C375        C  0.07124448  0.32270208  0.13954963    -0.11100
C376        C  0.08981310  0.32963501  0.16973631    -0.12700
C377        C  0.15959765  0.40302784  0.17256709    -0.11100
C378        C  0.16603338  0.42291311  0.14407153    -0.12700
C379        C  0.06979796  0.42327673  0.28896453    -0.11100
C380        C  0.08749258  0.40416956  0.28116865    -0.12700
C381        C  0.40146375  0.32909526  0.17006896    -0.11100
C382        C  0.42023656  0.32219405  0.14011750    -0.12700
C383        C  0.33078402  0.40208230  0.17233725    -0.11100
C384        C  0.32433431  0.42199611  0.14397764    -0.12700
C385        C  0.42111041  0.42315369  0.28667679    -0.11100
C386        C  0.40323937  0.40407699  0.27969543    -0.12700
C387        C  0.08667884  0.09596415  0.74454593    -0.11100
C388        C  0.06920907  0.07671175  0.73613833    -0.12700
C389        C  0.15724428  0.09752536  0.85703750    -0.11100
C390        C  0.16388751  0.07801940  0.88616393    -0.12700
C391        C  0.07041569  0.18071815  0.88218018    -0.11100
C392        C  0.08907336  0.17259141  0.85307480    -0.12700
C393        C  0.09005753  0.32925679  0.85170331    -0.11100
C394        C  0.07132677  0.32118262  0.88078361    -0.12700
C395        C  0.08760681  0.40482944  0.74270815    -0.11100
C396        C  0.06954100  0.42360432  0.73507245    -0.12700
C397        C  0.16515671  0.42282450  0.88698730    -0.11100
C398        C  0.15839403  0.40374180  0.85710021    -0.12700
C399        C  0.32688372  0.07608046  0.88577975    -0.11100
C400        C  0.33310763  0.09558687  0.85637235    -0.12700
C401        C  0.40391863  0.09566675  0.74448496    -0.11100
C402        C  0.42178723  0.07662391  0.73694990    -0.12700
C403        C  0.39982912  0.17202829  0.85301531    -0.11100
C404        C  0.41841826  0.18051477  0.88201501    -0.12700
C405        C  0.33163367  0.40267646  0.85688257    -0.11100
C406        C  0.32524059  0.42183171  0.88680695    -0.12700
C407        C  0.40022076  0.32862079  0.85327343    -0.11100
C408        C  0.41896200  0.32049320  0.88228730    -0.12700
C409        C  0.42106764  0.42276799  0.73574132    -0.11100
C410        C  0.40294034  0.40400534  0.74351868    -0.12700
C411        C  0.31104708  0.31625511  0.68496407    -0.11100
C412        C  0.32515245  0.32919270  0.71652370    -0.12700
C413        C  0.32502501  0.16927366  0.71611908    -0.11100
C414        C  0.31096180  0.18244540  0.68469639    -0.12700
C415        C  0.16582967  0.33075358  0.71607946    -0.11100
C416        C  0.17988982  0.31781075  0.68448281    -0.12700
C417        C  0.31386702  0.31424954  0.34219009    -0.11100
C418        C  0.32801166  0.32699682  0.31037208    -0.12700
C419        C  0.17799718  0.18330675  0.68421025    -0.11100
C420        C  0.16395541  0.17069201  0.71621697    -0.12700
C421        C  0.16282407  0.32736885  0.31000798    -0.11100
C422        C  0.17667487  0.31447879  0.34196105    -0.12700
C423        C  0.31352993  0.18529478  0.34175950    -0.11100
C424        C  0.32759712  0.17237513  0.31004118    -0.12700
C425        C  0.17583237  0.18671407  0.34140492    -0.11100
C426        C  0.16199953  0.17386334  0.30942301    -0.12700
O427        O  0.18615421  0.69321411  0.42712377    -0.73100
O428        O  0.21266870  0.71861655  0.36779941    -0.52000
C429        C  0.19278367  0.70020502  0.38116242     0.80600
O430        O  0.18792773  0.80833799  0.59867201    -0.57700
O431        O  0.21357486  0.78181924  0.65777791    -0.50700
C432        C  0.19464971  0.80135888  0.64461939     0.72600
O433        O  0.18602954  0.80673921  0.42691242    -0.72300
O434        O  0.21295523  0.78171176  0.36767158    -0.52800
C435        C  0.19303238  0.80018036  0.38088163     0.78600
O436        O  0.18851420  0.69034406  0.59878844    -0.57400
O437        O  0.21414466  0.71677898  0.65794841    -0.50500
C438        C  0.19517955  0.69731060  0.64478145     0.75200
Zr439      Zr  0.20275558  0.70491542  0.51286204     2.54700
O440        O  0.14978849  0.70152105  0.51452116    -0.78000
O441        O  0.20649530  0.65099214  0.51129629    -0.91400
Zr442      Zr  0.20158891  0.79334293  0.51279358     2.64700
O443        O  0.14849401  0.79195290  0.51277913    -0.96400
O444        O  0.20316435  0.84738052  0.51347512    -0.78400
O445        O  0.20150466  0.74914690  0.46397280    -0.81800
O446        O  0.20141949  0.74911125  0.56179690    -2.16500
O447        O  0.30350021  0.69108217  0.59799023    -0.65200
O448        O  0.27734372  0.71684834  0.65736861    -0.49700
C449        C  0.29651803  0.69759950  0.64402723     0.73600
O450        O  0.30448291  0.80694788  0.42714862    -0.58100
O451        O  0.27790663  0.78159779  0.36783678    -0.50100
C452        C  0.29781722  0.80005675  0.38111356     0.75400
O453        O  0.30255144  0.80884799  0.59846497    -0.69500
O454        O  0.27733242  0.78199316  0.65765470    -0.48100
C455        C  0.29618118  0.80158826  0.64443244     0.76800
O456        O  0.30468254  0.69284798  0.42667415    -0.64800
O457        O  0.27782071  0.71815420  0.36766825    -0.52000
C458        C  0.29770351  0.69960860  0.38074827     0.75200
Zr459      Zr  0.28917818  0.70610444  0.51239606     2.77500
O460        O  0.34225284  0.70753066  0.51056790    -0.95500
O461        O  0.28762783  0.65211511  0.51282084    -0.76400
Zr462      Zr  0.28792405  0.79451110  0.51276629     2.70100
O463        O  0.34089521  0.79740127  0.51476690    -0.77600
O464        O  0.28216610  0.84821574  0.51095694    -0.96700
Zr465      Zr  0.24534492  0.74988598  0.41558696     2.21500
Zr466      Zr  0.24549983  0.74950605  0.60991307     2.11100
O467        O  0.28940243  0.75021673  0.56150282    -2.45400
O468        O  0.28916467  0.75038828  0.46375749    -0.77400
O469        O  0.24604234  0.70471118  0.56206079    -0.69600
O470        O  0.24476687  0.79482564  0.46322561    -2.30600
O471        O  0.24589636  0.70473472  0.46300869    -2.26800
O472        O  0.24479183  0.79439149  0.56235045    -0.71400
H473        H  0.18452483  0.74892803  0.58385355     0.80600
H474        H  0.24463398  0.81195191  0.44115206     0.81700
H475        H  0.30635007  0.75037018  0.58339135     0.83900
H476        H  0.24603957  0.68768402  0.44079185     0.81600
H477        H  0.20707663  0.85319112  0.47781689     0.44600
H478        H  0.27059752  0.85288290  0.54173831     0.43600
H479        H  0.34746708  0.77819147  0.50051801     0.43200
H480        H  0.34775596  0.72121202  0.53841441     0.41200
H481        H  0.27013162  0.64718882  0.53321458     0.44300
H482        H  0.21298993  0.64608120  0.47639016     0.39100
H483        H  0.14331575  0.72044534  0.52995588     0.45200
H484        H  0.14309396  0.78332011  0.54609792     0.41600
H485        H  0.34838978  0.68767932  0.52264735     0.46500
H486        H  0.18603601  0.64401512  0.51277526     0.45300
H487        H  0.14252926  0.81302665  0.51513574     0.45400
H488        H  0.30188135  0.85603500  0.51842866     0.45800
C489        C  0.34425872  0.84551641  0.75176817     0.88700
C490        C  0.36320450  0.82547331  0.78558680    -0.51600
C491        C  0.38023664  0.84103050  0.81867962     0.11600
C492        C  0.37673872  0.87482779  0.81506984     0.22500
C493        C  0.32675612  0.86508136  0.78861098    -0.52300
C494        C  0.34399189  0.88049369  0.82156699     0.11700
C495        C  0.36575224  0.86675932  0.72558241    -0.51800
C496        C  0.38265949  0.88206581  0.75914775     0.12300
H497        H  0.36345833  0.80141042  0.78307556     0.16800
H498        H  0.39066606  0.88747151  0.84207928     0.02500
H499        H  0.30315802  0.86718720  0.78776124     0.17100
H500        H  0.36720279  0.86967205  0.68463817     0.16900
C501        C  0.34337950  0.65257095  0.75182318     0.88700
C502        C  0.32603603  0.63246845  0.78808203    -0.51600
C503        C  0.34338610  0.61724777  0.82119832     0.11600
C504        C  0.37606657  0.62357422  0.81530080     0.22500
C505        C  0.36172023  0.67278642  0.78627669    -0.52300
C506        C  0.37888362  0.65741738  0.81939391     0.11700
C507        C  0.36542836  0.63189368  0.72574753    -0.51800
C508        C  0.38243021  0.61674399  0.75936055     0.12300
H509        H  0.30248334  0.62997300  0.78687236     0.16800
H510        H  0.39010640  0.61108824  0.84236014     0.02500
H511        H  0.36157825  0.69685983  0.78401948     0.17100
H512        H  0.36716649  0.62920973  0.68479072     0.16900
C513        C  0.14773554  0.84646341  0.75207302     0.88700
C514        C  0.16539607  0.86644501  0.78805179    -0.51600
C515        C  0.14828527  0.88215077  0.82085285     0.11600
C516        C  0.11551445  0.87639081  0.81494186     0.22500
C517        C  0.12892395  0.82676938  0.78673123    -0.52300
C518        C  0.11193908  0.84266644  0.81945716     0.11700
C519        C  0.12609252  0.86738336  0.72556366    -0.51800
C520        C  0.10935376  0.88298889  0.75893146     0.12300
H521        H  0.18898527  0.86855840  0.78678910     0.16800
H522        H  0.10165834  0.88930563  0.84170074     0.02500
H523        H  0.12843406  0.80270086  0.78454722     0.17100
H524        H  0.12432628  0.86978686  0.68455676     0.16900
C525        C  0.14729562  0.65366303  0.75275831     0.88700
C526        C  0.12860581  0.67388469  0.78671377    -0.51600
C527        C  0.11136481  0.65847019  0.81969528     0.11600
C528        C  0.11447479  0.62463875  0.81594237     0.22500
C529        C  0.16457161  0.63383108  0.78946972    -0.52300
C530        C  0.14717167  0.61857656  0.82236455     0.11700
C531        C  0.12553332  0.63274737  0.72651527    -0.51800
C532        C  0.10844009  0.61760006  0.75997937     0.12300
H533        H  0.12859449  0.69795029  0.78425209     0.16800
H534        H  0.10040305  0.61211506  0.84288941     0.00800
H535        H  0.18814297  0.63143526  0.78858496     0.17100
H536        H  0.12403883  0.62992513  0.68555838     0.16900
N537        N  0.49589482  0.95496592  0.73258418    -0.34400
N538        N  0.04031493  0.50009990  0.73058867    -0.55000
N539        N  0.49577153  0.54429422  0.73093797    -0.34400
N540        N  0.45065564  0.49933174  0.73002730    -0.55000
C541        C  0.01942777  0.93817469  0.72254368     0.29200
C542        C  0.47212067  0.93822224  0.72260633     0.29200
C543        C  0.01902289  0.56128112  0.72103747     0.29100
C544        C  0.47201676  0.56088606  0.72028747     0.29100
C545        C  0.05706548  0.97596277  0.74196925     0.37800
C546        C  0.05665910  0.52402401  0.74226165     0.37800
C547        C  0.43441345  0.97592417  0.74264719     0.37800
C548        C  0.43436767  0.52336276  0.74136953     0.37800
C549        C  0.01078373  0.91064280  0.70441145    -0.19700
C550        C  0.48079727  0.91052114  0.70527418    -0.19700
C551        C  0.01014115  0.58857798  0.70225784    -0.19700
C552        C  0.48068086  0.58844309  0.70226923    -0.19700
C553        C  0.08427835  0.98487532  0.75924281    -0.20800
C554        C  0.08363926  0.51523502  0.76073791    -0.20800
C555        C  0.40718463  0.98474783  0.75996685    -0.20800
C556        C  0.40725562  0.51468993  0.75942140    -0.20800
C557        C  0.04840645  0.94646058  0.73317748    -0.16100
C558        C  0.44310708  0.94642077  0.73357450    -0.16100
C559        C  0.44308819  0.55282546  0.73198126    -0.16100
C560        C  0.04799683  0.55345739  0.73274816    -0.16100
H561        H  0.02466919  0.89233446  0.69327809     0.16800
H562        H  0.46695470  0.89197357  0.69523145     0.16800
H563        H  0.02386140  0.60699879  0.69108377     0.16800
H564        H  0.46681441  0.60687804  0.69169408     0.16800
H565        H  0.10233435  0.97088846  0.77059948     0.15100
H566        H  0.10152825  0.52930147  0.77256499     0.15100
H567        H  0.38909723  0.97069880  0.77088356     0.15100
H568        H  0.38934276  0.52884015  0.77085050     0.15100
H569        H  0.49602264  0.97491059  0.75237527     0.28300
H570        H  0.49581159  0.52460904  0.75151730     0.28300
C571        C  0.34574787  0.84381371  0.27308404     0.88700
C572        C  0.32737937  0.86354044  0.23777359    -0.51600
C573        C  0.34389035  0.87975135  0.20483238     0.11600
C574        C  0.37676199  0.87461877  0.20961337     0.22500
C575        C  0.36463872  0.82461015  0.23764072    -0.52300
C576        C  0.38091380  0.84100142  0.20446806     0.11700
C577        C  0.36718371  0.86517706  0.29915866    -0.51800
C578        C  0.38326789  0.88126270  0.26543958     0.12300
H579        H  0.30378456  0.86535392  0.23991474     0.16800
H580        H  0.39005347  0.88793724  0.18256932     0.02500
H581        H  0.36544617  0.80053635  0.23923014     0.17100
H582        H  0.36909280  0.86769565  0.34012081     0.16900
C583        C  0.14592349  0.84444260  0.27232086     0.88700
C584        C  0.12395730  0.86529486  0.29819782    -0.51600
C585        C  0.10788769  0.88131812  0.26440787     0.11600
C586        C  0.11483419  0.87502583  0.20861045     0.22500
C587        C  0.12762748  0.82509390  0.23626048    -0.52300
C588        C  0.11129197  0.84135613  0.20302857     0.11700
C589        C  0.16420697  0.86465985  0.23767463    -0.51800
C590        C  0.14765066  0.88072455  0.20453976     0.12300
H591        H  0.12180330  0.86767456  0.33914747     0.16800
H592        H  0.10148719  0.88823659  0.18148016     0.02500
H593        H  0.12711235  0.80100673  0.23767563     0.17100
H594        H  0.18774872  0.86685384  0.24034856     0.16900
N595        N  0.45154323  0.81422251  0.00990746    -0.34400
N596        N  0.49592361  0.81438167  0.08866805    -0.55000
N597        N  0.04004279  0.81449463  0.00946563    -0.34400
N598        N  0.49561257  0.81157103  0.93034461    -0.55000
C599        C  0.43512800  0.80908266  0.05172046     0.29200
C600        C  0.43499107  0.80764956  0.96888586     0.29200
C601        C  0.05697935  0.81007688  0.05087191     0.29100
C602        C  0.05677691  0.80956526  0.96800298     0.29100
C603        C  0.47232942  0.82091883  0.11736655     0.37800
C604        C  0.01975966  0.82045030  0.11767091     0.37800
C605        C  0.47183978  0.81688599  0.90136071     0.37800
C606        C  0.01908116  0.81786205  0.90127942     0.37800
C607        C  0.40786383  0.79883962  0.03712727    -0.19700
C608        C  0.40777469  0.79794739  0.98475944    -0.19700
C609        C  0.08480131  0.80191343  0.03552310    -0.19700
C610        C  0.08468719  0.80164745  0.98319352    -0.19700
C611        C  0.48101520  0.83103323  0.16481446    -0.20800
C612        C  0.01133928  0.82980113  0.16575054    -0.20800
C613        C  0.48021731  0.82515313  0.85270162    -0.20800
C614        C  0.01019273  0.82604120  0.85285641    -0.20800
C615        C  0.44315273  0.81648756  0.10198899    -0.16100
C616        C  0.44274230  0.81356438  0.91794891    -0.16100
C617        C  0.04841094  0.81534756  0.91729417    -0.16100
C618        C  0.04889628  0.81648682  0.10154216    -0.16100
H619        H  0.38968340  0.79335623  0.06163636     0.16800
H620        H  0.38951943  0.79164688  0.96100542     0.16800
H621        H  0.10350201  0.79756062  0.05951124     0.16800
H622        H  0.10326281  0.79701945  0.95905687     0.16800
H623        H  0.46723257  0.83772827  0.19620882     0.15100
H624        H  0.02530313  0.83578028  0.19732060     0.15100
H625        H  0.46623608  0.83053920  0.82083891     0.15100
H626        H  0.02385395  0.83179435  0.82076696     0.15100
H627        H  0.47101982  0.82595416  0.00915559     0.28300
H628        H  0.01978480  0.82470873  0.00934341     0.28300
C629        C  0.14539918  0.65605952  0.27373559     0.88700
C630        C  0.16368847  0.63601632  0.23880050    -0.51600
C631        C  0.14706808  0.61980926  0.20599080     0.11600
C632        C  0.11423626  0.62524197  0.21066765     0.22500
C633        C  0.12679701  0.67526929  0.23805142    -0.52300
C634        C  0.11046667  0.65888765  0.20509439     0.11700
C635        C  0.12378956  0.63504493  0.30009175    -0.51800
C636        C  0.10764437  0.61890025  0.26660015     0.12300
H637        H  0.18727502  0.63410486  0.24094594     0.16800
H638        H  0.10084305  0.61194854  0.18374722     0.02500
H639        H  0.12623831  0.69936334  0.23926078     0.17100
H640        H  0.12188016  0.63271004  0.34108977     0.16900
N641        N  0.45094643  0.49980593  0.29615966    -0.34400
N642        N  0.49582894  0.54538648  0.29537600    -0.55000
N643        N  0.04025265  0.50005760  0.29711140    -0.34400
N644        N  0.49618160  0.95433761  0.29203151    -0.55000
C645        C  0.43455266  0.52403455  0.28604232     0.29200
C646        C  0.43496966  0.97563151  0.28296542     0.29200
C647        C  0.05669783  0.52418809  0.28650230     0.29100
C648        C  0.05693660  0.97604755  0.28581244     0.29100
C649        C  0.47222617  0.56300858  0.30080872     0.37800
C650        C  0.01905139  0.56304985  0.30116842     0.37800
C651        C  0.47264310  0.93652780  0.29634932     0.37800
C652        C  0.01933427  0.93689418  0.29915935     0.37800
C653        C  0.40722047  0.51524265  0.26909295    -0.19700
C654        C  0.40777511  0.98460290  0.26563584    -0.19700
C655        C  0.08406954  0.51523165  0.27004635    -0.19700
C656        C  0.08434451  0.98516987  0.26980452    -0.19700
C657        C  0.48080028  0.59210177  0.30932001    -0.20800
C658        C  0.01037398  0.59191888  0.31142563    -0.20800
C659        C  0.48132790  0.90731537  0.30320563    -0.20800
C660        C  0.01077916  0.90783191  0.30810066    -0.20800
C661        C  0.44317467  0.55380110  0.29345199    -0.16100
C662        C  0.44354206  0.94580422  0.28979261    -0.16100
C663        C  0.04835499  0.94616951  0.29203930    -0.16100
C664        C  0.04808594  0.55399375  0.29345374    -0.16100
H665        H  0.38910947  0.52932320  0.25837968     0.16800
H666        H  0.38981764  0.97062052  0.25386908     0.16800
H667        H  0.10222882  0.52921452  0.25925728     0.16800
H668        H  0.10259487  0.97129014  0.25904918     0.16800
H669        H  0.46698766  0.61139968  0.31390686     0.15100
H670        H  0.02411856  0.61116387  0.31706882     0.15100
H671        H  0.46760243  0.88787454  0.30655612     0.15100
H672        H  0.02461193  0.88860680  0.31335323     0.15100
H673        H  0.47093475  0.49969827  0.31463093     0.28300
H674        H  0.02017955  0.50005544  0.31534121     0.28300
N675        N  0.16941763  0.95575068  0.01452900    -0.34400
N676        N  0.17159588  0.50011206  0.93639974    -0.55000
N677        N  0.16935130  0.54510026  0.01537291    -0.34400
N678        N  0.17083345  0.50025784  0.09447463    -0.55000
C679        C  0.17489482  0.93878837  0.97319315     0.29200
C680        C  0.17474354  0.93889539  0.05603546     0.29200
C681        C  0.17497115  0.56197764  0.97403742     0.29100
C682        C  0.17459093  0.56202635  0.05681015     0.29100
C683        C  0.16552563  0.97669610  0.90636894     0.37800
C684        C  0.16569912  0.52407399  0.90731010     0.37800
C685        C  0.16415331  0.97670422  0.12253906     0.37800
C686        C  0.16422565  0.52419664  0.12312105     0.37800
C687        C  0.18387353  0.91080115  0.98858710    -0.19700
C688        C  0.18382717  0.91087998  0.04090043    -0.19700
C689        C  0.18402951  0.58995263  0.98933335    -0.19700
C690        C  0.18379840  0.58998505  0.04164811    -0.19700
C691        C  0.15713882  0.98547417  0.85797052    -0.20800
C692        C  0.15713903  0.51521793  0.85905185    -0.20800
C693        C  0.15485757  0.98539253  0.17049412    -0.20800
C694        C  0.15473522  0.51530813  0.17083419    -0.20800
C695        C  0.16922545  0.94702468  0.92234774    -0.16100
C696        C  0.16861953  0.94712547  0.10672484    -0.16100
C697        C  0.16829752  0.55383624  0.10740574    -0.16100
C698        C  0.16907974  0.55375129  0.92332986    -0.16100
H699        H  0.18924299  0.89205714  0.96460778     0.16800
H700        H  0.18911295  0.89218196  0.06504594     0.16800
H701        H  0.18951450  0.60862353  0.96527082     0.16800
H702        H  0.18905404  0.60870221  0.06576215     0.16800
H703        H  0.15175237  0.97139628  0.82597068     0.15100
H704        H  0.15138779  0.52924079  0.82716991     0.15100
H705        H  0.14905841  0.97124295  0.20217599     0.15100
H706        H  0.14829967  0.52933507  0.20230737     0.15100
H707        H  0.15862106  0.97598618  0.01439325     0.28300
H708        H  0.15843345  0.52492052  0.01523301     0.28300
N709        N  0.44985139  0.68680790  0.01036733    -0.34400
N710        N  0.49440463  0.68611732  0.08898389    -0.55000
N711        N  0.04026496  0.68664401  0.01050795    -0.34400
N712        N  0.49375098  0.68970638  0.93064849    -0.55000
C713        C  0.43310666  0.69040428  0.05223310     0.29200
C714        C  0.43278762  0.69189704  0.96936907     0.29200
C715        C  0.05698315  0.69105211  0.05217166     0.29100
C716        C  0.05695805  0.69241604  0.96933880     0.29100
C717        C  0.47089954  0.67964685  0.11789345     0.37800
C718        C  0.01972828  0.67942290  0.11811958     0.37800
C719        C  0.47005465  0.68378804  0.90180146     0.37800
C720        C  0.01967466  0.68324628  0.90235394     0.37800
C721        C  0.40505829  0.69826266  0.03767777    -0.19700
C722        C  0.40485602  0.69919161  0.98534689    -0.19700
C723        C  0.08463255  0.70007372  0.03732380    -0.19700
C724        C  0.08462199  0.70090921  0.98497139    -0.19700
C725        C  0.47974170  0.66974339  0.16542158    -0.20800
C726        C  0.01119763  0.66939655  0.16573876    -0.20800
C727        C  0.47859287  0.67508448  0.85343171    -0.20800
C728        C  0.01111258  0.67392978  0.85435173    -0.20800
C729        C  0.44162580  0.68345234  0.10248840    -0.16100
C730        C  0.44085763  0.68641494  0.91839777    -0.16100
C731        C  0.04888225  0.68653484  0.91853885    -0.16100
C732        C  0.04885309  0.68390100  0.10249916    -0.16100
H733        H  0.38641617  0.70190675  0.06214916     0.16800
H734        H  0.38603930  0.70368007  0.96170614     0.16800
H735        H  0.10315415  0.70462336  0.06162434     0.16800
H736        H  0.10312941  0.70620686  0.96108737     0.16800
H737        H  0.46606434  0.66315770  0.19701826     0.15100
H738        H  0.02507866  0.66306127  0.19722276     0.15100
H739        H  0.46471030  0.66907199  0.82177206     0.15100
H740        H  0.02498821  0.66765127  0.82283277     0.15100
H741        H  0.47024640  0.67691890  0.00954905     0.28300
H742        H  0.02030090  0.67584357  0.00988778     0.28300
C743        C  0.34479782  0.65484533  0.27313291     0.88700
C744        C  0.36353670  0.67402928  0.23757951    -0.51600
C745        C  0.37999965  0.65763990  0.20477563     0.11600
C746        C  0.37619605  0.62400310  0.21030049     0.22500
C747        C  0.32664931  0.63480414  0.23799667    -0.52300
C748        C  0.34335905  0.61859934  0.20530018     0.11700
C749        C  0.36636430  0.63383692  0.29965118    -0.51800
C750        C  0.38266075  0.61772839  0.26631062     0.12300
H751        H  0.36411819  0.69811923  0.23882332     0.16800
H752        H  0.38968502  0.61070699  0.18351304     0.02500
H753        H  0.30305313  0.63294167  0.23984406     0.17100
H754        H  0.36827546  0.63161808  0.34066581     0.16900
N755        N  0.32040279  0.54393564  0.01490251    -0.34400
N756        N  0.32047795  0.99893013  0.93582174    -0.55000
N757        N  0.32124897  0.95421532  0.01487264    -0.34400
N758        N  0.31990582  0.99945320  0.09388105    -0.55000
C759        C  0.31494943  0.56073232  0.97339743     0.29200
C760        C  0.31462171  0.56076982  0.05620148     0.29200
C761        C  0.31613928  0.93712934  0.97357676     0.29100
C762        C  0.31580569  0.93744170  0.05636561     0.29100
C763        C  0.32610153  0.52296455  0.90752294     0.37800
C764        C  0.32646292  0.97485565  0.90702746     0.37800
C765        C  0.32572413  0.52322431  0.12255978     0.37800
C766        C  0.32623729  0.97544327  0.12256595     0.37800
C767        C  0.30525368  0.58853761  0.98844336    -0.19700
C768        C  0.30503014  0.58855902  0.04080879    -0.19700
C769        C  0.30716147  0.90914185  0.98897529    -0.19700
C770        C  0.30693351  0.90934063  0.04129719    -0.19700
C771        C  0.33581641  0.51404919  0.85997290    -0.20800
C772        C  0.33571086  0.98357288  0.85909028    -0.20800
C773        C  0.33563174  0.51447334  0.17010155    -0.20800
C774        C  0.33594710  0.98426443  0.17018266    -0.20800
C775        C  0.32180132  0.55262265  0.92297926    -0.16100
C776        C  0.32127780  0.55280095  0.10676068    -0.16100
C777        C  0.32198805  0.94578871  0.10692970    -0.16100
C778        C  0.32245081  0.94522251  0.92293836    -0.16100
H779        H  0.29982652  0.60716238  0.96422995     0.16800
H780        H  0.29942567  0.60722141  0.06481681     0.16800
H781        H  0.30213750  0.89028556  0.96502840     0.16800
H782        H  0.30174091  0.89064062  0.06549522     0.16800
H783        H  0.34217753  0.52803989  0.82841430     0.15100
H784        H  0.34169295  0.96945016  0.82746949     0.15100
H785        H  0.34217506  0.52859091  0.20138399     0.15100
H786        H  0.34231723  0.97019003  0.20162827     0.15100
H787        H  0.33179947  0.52402124  0.01511152     0.28300
H788        H  0.33209001  0.97442139  0.01487560     0.28300
C789        C  0.32551508  0.57644530  0.14319014    -0.11100
C790        C  0.33186837  0.59623829  0.17187141    -0.12700
C791        C  0.40051354  0.67034043  0.16955996    -0.11100
C792        C  0.41888021  0.67792466  0.13949138    -0.12700
C793        C  0.42118470  0.57658467  0.28908834    -0.11100
C794        C  0.40343247  0.59569140  0.28153673    -0.12700
C795        C  0.09015934  0.67158994  0.16955510    -0.11100
C796        C  0.07180751  0.67895023  0.13931351    -0.12700
C797        C  0.15852022  0.59726813  0.17291243    -0.11100
C798        C  0.16448050  0.57735936  0.14421764    -0.12700
C799        C  0.08731793  0.59638104  0.28157200    -0.11100
C800        C  0.06994772  0.57689235  0.28895284    -0.12700
C801        C  0.07200987  0.82133823  0.13819397    -0.11100
C802        C  0.09069787  0.82859608  0.16793910    -0.12700
C803        C  0.15911393  0.90351484  0.17196616    -0.11100
C804        C  0.16505455  0.92356266  0.14354606    -0.12700
C805        C  0.07023105  0.92335464  0.28686907    -0.11100
C806        C  0.08751435  0.90384322  0.27910956    -0.12700
C807        C  0.40158921  0.82845490  0.16914765    -0.11100
C808        C  0.42013394  0.82134394  0.13893506    -0.12700
C809        C  0.33226025  0.90231732  0.17202580    -0.11100
C810        C  0.32602605  0.92229009  0.14366784    -0.12700
C811        C  0.42142782  0.92308488  0.28627262    -0.11100
C812        C  0.40375772  0.90374922  0.27990688    -0.12700
C813        C  0.08725137  0.59585697  0.74486043    -0.11100
C814        C  0.06945273  0.57677958  0.73708281    -0.12700
C815        C  0.15804363  0.59665028  0.85729451    -0.11100
C816        C  0.16453699  0.57723976  0.88666758    -0.12700
C817        C  0.07198420  0.68070871  0.88228765    -0.11100
C818        C  0.09063365  0.67230558  0.85334781    -0.12700
C819        C  0.09049271  0.82944079  0.85249627    -0.11100
C820        C  0.07140887  0.82133642  0.88084944    -0.12700
C821        C  0.08810171  0.90453275  0.74379042    -0.11100
C822        C  0.07010602  0.92343156  0.73664486    -0.12700
C823        C  0.16544451  0.92353663  0.88529773    -0.11100
C824        C  0.15937683  0.90412468  0.85558621    -0.12700
C825        C  0.32622976  0.57608949  0.88615044    -0.11100
C826        C  0.33254439  0.59538437  0.85637621    -0.12700
C827        C  0.40375589  0.59512021  0.74435916    -0.11100
C828        C  0.42159343  0.57609384  0.73651351    -0.12700
C829        C  0.39932374  0.67139979  0.85335708    -0.11100
C830        C  0.41779200  0.68015896  0.88231070    -0.12700
C831        C  0.33297620  0.90226930  0.85666951    -0.11100
C832        C  0.32669160  0.92166632  0.88623455    -0.12700
C833        C  0.40089543  0.82734742  0.85267045    -0.11100
C834        C  0.41947671  0.81906315  0.88185669    -0.12700
C835        C  0.42142627  0.92325640  0.73718912    -0.11100
C836        C  0.40362180  0.90409600  0.74429930    -0.12700
C837        C  0.31181742  0.81640577  0.68405383    -0.11100
C838        C  0.32603640  0.82920997  0.71563857    -0.12700
C839        C  0.32526479  0.66887965  0.71546925    -0.11100
C840        C  0.31159995  0.68213884  0.68365103    -0.12700
C841        C  0.16567469  0.82976699  0.71603208    -0.11100
C842        C  0.17946144  0.81657130  0.68433271    -0.12700
C843        C  0.31406260  0.81420851  0.34141228    -0.11100
C844        C  0.32822071  0.82686752  0.30950842    -0.12700
C845        C  0.17975074  0.68238217  0.68456255    -0.11100
C846        C  0.16564836  0.66973892  0.71650967    -0.12700
C847        C  0.16336259  0.82758063  0.30897555    -0.11100
C848        C  0.17721133  0.81474959  0.34109280    -0.12700
C849        C  0.31343845  0.68505146  0.34095616    -0.11100
C850        C  0.32725402  0.67196225  0.30916889    -0.12700
C851        C  0.17667323  0.68604265  0.34161948    -0.11100
C852        C  0.16279560  0.67312757  0.30983314    -0.12700
O853        O  0.68597487  0.19351003  0.42694989    -0.73100
O854        O  0.71306744  0.21845664  0.36783305    -0.52000
C855        C  0.69298165  0.20019252  0.38097491     0.80600
O856        O  0.68883233  0.31001506  0.59839319    -0.57700
O857        O  0.71359809  0.28265804  0.65751697    -0.50700
C858        C  0.69520901  0.30270141  0.64434865     0.72600
O859        O  0.68644267  0.30749998  0.42664796    -0.72300
O860        O  0.71292092  0.28178177  0.36766504    -0.52800
C861        C  0.69319922  0.30051811  0.38066444     0.78600
O862        O  0.68727451  0.19170417  0.59890236    -0.57400
O863        O  0.71318401  0.21783463  0.65810549    -0.50500
C864        C  0.69394823  0.19864143  0.64494664     0.75200
Zr865      Zr  0.70203578  0.20592024  0.51289790     2.54700
O866        O  0.64897104  0.20526311  0.51396000    -0.78000
O867        O  0.70484025  0.15196055  0.51250087    -0.91400
Zr868      Zr  0.70202875  0.29428281  0.51264466     2.64700
O869        O  0.64893987  0.29296226  0.51445636    -0.96400
O870        O  0.70302006  0.34827531  0.51035043    -0.78400
O871        O  0.70140988  0.25009082  0.46380805    -0.81800
O872        O  0.70126787  0.25012247  0.56174646    -2.16500
O873        O  0.80290782  0.19095275  0.59814253    -0.65200
O874        O  0.77701074  0.21703648  0.65745504    -0.49700
C875        C  0.79612801  0.19770514  0.64412858     0.73600
O876        O  0.80520468  0.30631612  0.42773668    -0.58100
O877        O  0.77796299  0.28176038  0.36833922    -0.50100
C878        C  0.79822407  0.29976207  0.38171348     0.75400
O879        O  0.80200759  0.30902155  0.59950363    -0.69500
O880        O  0.77661645  0.28220824  0.65851399    -0.48100
C881        C  0.79540664  0.30185837  0.64543851     0.76800
O882        O  0.80486938  0.19336983  0.42706725    -0.64800
O883        O  0.77813183  0.21873388  0.36799150    -0.52000
C884        C  0.79804995  0.20024853  0.38111553     0.75200
Zr885      Zr  0.78861833  0.20594883  0.51270548     2.77500
O886        O  0.84173342  0.20640200  0.51257731    -0.95500
O887        O  0.78654687  0.15198381  0.51125900    -0.76400
Zr888      Zr  0.78858928  0.29412373  0.51333954     2.70100
O889        O  0.84159776  0.29289314  0.51732014    -0.77600
O890        O  0.78727166  0.34808010  0.50902568    -0.96700
Zr891      Zr  0.74535842  0.25015671  0.41583754     2.21500
Zr892      Zr  0.74519968  0.24987857  0.61005283     2.11100
O893        O  0.78926638  0.24994498  0.56214231    -2.45400
O894        O  0.78918739  0.25014202  0.46400848    -0.77400
O895        O  0.74532101  0.20509260  0.56218435    -0.69600
O896        O  0.74541824  0.29508398  0.46363432    -2.30600
O897        O  0.74532944  0.20512163  0.46335850    -2.26800
O898        O  0.74522264  0.29481315  0.56237683    -0.71400
H899        H  0.68435829  0.25020120  0.58376650     0.80600
H900        H  0.74552882  0.31219857  0.44153177     0.81700
H901        H  0.80613201  0.24995247  0.58422512     0.83900
H902        H  0.74539347  0.18808489  0.44110954     0.81600
H903        H  0.72385832  0.35334818  0.50580497     0.44600
H904        H  0.77844283  0.35437821  0.54165006     0.43600
H905        H  0.84704151  0.27457425  0.49881704     0.43200
H906        H  0.84719779  0.22027678  0.54016649     0.41200
H907        H  0.77238800  0.14677436  0.53825323     0.44300
H908        H  0.71610536  0.14695838  0.48154841     0.39100
H909        H  0.64335663  0.22582142  0.52292021     0.45200
H910        H  0.64394162  0.28263582  0.54652483     0.41600
H911        H  0.84740994  0.18658006  0.52546221     0.46500
H912        H  0.68471058  0.14539384  0.50484276     0.45300
H913        H  0.64307458  0.31383024  0.52032864     0.45400
H914        H  0.80795783  0.35418511  0.51163752     0.45800
C915        C  0.84331436  0.34575717  0.75276371     0.88700
C916        C  0.86243135  0.32573469  0.78634671    -0.51600
C917        C  0.87964424  0.34135546  0.81908120     0.11600
C918        C  0.87608216  0.37512536  0.81548961     0.22500
C919        C  0.82597555  0.36529655  0.78977684    -0.52300
C920        C  0.84335176  0.38071305  0.82242963     0.11700
C921        C  0.86468394  0.36698107  0.72621600    -0.51800
C922        C  0.88177763  0.38228789  0.75948177     0.12300
H923        H  0.86272186  0.30167295  0.78383795     0.16800
H924        H  0.89012103  0.38779923  0.84228422     0.02500
H925        H  0.80236821  0.36736509  0.78931048     0.17100
H926        H  0.86600556  0.36978633  0.68523883     0.16900
C927        C  0.84361825  0.15285727  0.75121339     0.88700
C928        C  0.82593274  0.13306884  0.78745556    -0.51600
C929        C  0.84299281  0.11753294  0.82054724     0.11600
C930        C  0.87575969  0.12324298  0.81464843     0.22500
C931        C  0.86237338  0.17273039  0.78564810    -0.52300
C932        C  0.87924445  0.15698365  0.81874848     0.11700
C933        C  0.86529235  0.13180155  0.72508476    -0.51800
C934        C  0.88200755  0.11637070  0.75874508     0.12300
H935        H  0.80234222  0.13098503  0.78621510     0.16800
H936        H  0.88957497  0.11047599  0.84168213     0.02500
H937        H  0.86273420  0.19679796  0.78334524     0.17100
H938        H  0.86707496  0.12916145  0.68412410     0.16900
C939        C  0.64781647  0.34685259  0.75218074     0.88700
C940        C  0.66481370  0.36668889  0.78934302    -0.51600
C941        C  0.64716101  0.38209311  0.82171151     0.11600
C942        C  0.61448991  0.37608295  0.81426787     0.22500
C943        C  0.62867899  0.32674106  0.78559272    -0.52300
C944        C  0.61114513  0.34226606  0.81799642     0.11700
C945        C  0.62642147  0.36776570  0.72520989    -0.51800
C946        C  0.60904562  0.38295334  0.75806320     0.12300
H947        H  0.68839143  0.36903373  0.78901170     0.16800
H948        H  0.60014804  0.38870641  0.84064453     0.02500
H949        H  0.62849433  0.30268135  0.78298884     0.17100
H950        H  0.62520986  0.37041404  0.68418081     0.16900
C951        C  0.64658329  0.15480707  0.75366465     0.88700
C952        C  0.62766331  0.17477194  0.78761309    -0.51600
C953        C  0.61059058  0.15911679  0.82049575     0.11600
C954        C  0.61411145  0.12532225  0.81681813     0.22500
C955        C  0.66409686  0.13510230  0.79037482    -0.52300
C956        C  0.64686725  0.11955086  0.82324201     0.11700
C957        C  0.62504791  0.13365463  0.72744030    -0.51800
C958        C  0.60816434  0.11825958  0.76086623     0.12300
H959        H  0.62721156  0.19882897  0.78494882     0.16800
H960        H  0.60014382  0.11263422  0.84370547     0.00800
H961        H  0.68767557  0.13285710  0.78925204     0.17100
H962        H  0.62355283  0.13084595  0.68648246     0.16900
N963        N  0.99522434  0.45491134  0.73237833    -0.34400
N964        N  0.54106945  0.00001907  0.72974165    -0.55000
N965        N  0.99546112  0.04436393  0.73169293    -0.34400
N966        N  0.95063420  0.99928038  0.73252902    -0.55000
C967        C  0.51915706  0.43788596  0.71842861     0.29200
C968        C  0.97150830  0.43836284  0.72115320     0.29200
C969        C  0.51964465  0.06135121  0.72030286     0.29100
C970        C  0.97159260  0.06071549  0.72083499     0.29100
C971        C  0.55708547  0.47543252  0.73850566     0.37800
C972        C  0.55760997  0.02401137  0.74017517     0.37800
C973        C  0.93399150  0.47557478  0.74341342     0.37800
C974        C  0.93429350  0.02326480  0.74372240     0.37800
C975        C  0.51034207  0.41032860  0.70059418    -0.19700
C976        C  0.98024171  0.41125238  0.70139068    -0.19700
C977        C  0.51082755  0.08866276  0.70148291    -0.19700
C978        C  0.98002217  0.08806401  0.70159392    -0.19700
C979        C  0.58436368  0.48396345  0.75608716    -0.20800
C980        C  0.58502543  0.01530214  0.75674409    -0.20800
C981        C  0.90700512  0.48431776  0.76193884    -0.20800
C982        C  0.90731062  0.01457606  0.76237037    -0.20800
C983        C  0.54819692  0.44602468  0.72912677    -0.16100
C984        C  0.94256769  0.44618873  0.73324599    -0.16100
C985        C  0.94279031  0.05262885  0.73322664    -0.16100
C986        C  0.54865106  0.05348423  0.73171161    -0.16100
H987        H  0.52412908  0.39193642  0.68947826     0.16800
H988        H  0.96642261  0.39298907  0.68983548     0.16800
H989        H  0.52460260  0.10698161  0.69002301     0.16800
H990        H  0.96601215  0.10629836  0.69057692     0.16800
H991        H  0.60236427  0.46973250  0.76680535     0.15100
H992        H  0.60315350  0.02941245  0.76723804     0.15100
H993        H  0.88906044  0.47022270  0.77338969     0.15100
H994        H  0.88938896  0.02870942  0.77383249     0.15100
H995        H  0.99531687  0.47424144  0.75396515     0.28300
H996        H  0.99568974  0.02496794  0.75306718     0.28300
C997        C  0.84526681  0.34390767  0.27351127     0.88700
C998        C  0.82639522  0.36341794  0.23868018    -0.51600
C999        C  0.84248586  0.37997005  0.20562355     0.11600
C1000       C  0.87546664  0.37537379  0.20990505     0.22500
C1001       C  0.86423278  0.32509298  0.23767315    -0.52300
C1002       C  0.88008935  0.34184241  0.20446700     0.11700
C1003       C  0.86651561  0.36548687  0.29947706    -0.51800
C1004       C  0.88219078  0.38191980  0.26569526     0.12300
H1005       H  0.80277807  0.36476362  0.24109534     0.16800
H1006       H  0.88843522  0.38895695  0.18277431     0.02500
H1007       H  0.86547904  0.30103328  0.23913896     0.17100
H1008       H  0.86871532  0.36776972  0.34043643     0.16900
C1009       C  0.64611632  0.34437741  0.27144181     0.88700
C1010       C  0.62446827  0.36548049  0.29746906    -0.51600
C1011       C  0.60828078  0.38147436  0.26384367     0.11600
C1012       C  0.61487409  0.37498781  0.20795048     0.22500
C1013       C  0.62745512  0.32504455  0.23591956    -0.52300
C1014       C  0.61107994  0.34130836  0.20273169     0.11700
C1015       C  0.66434361  0.36433917  0.23620415    -0.51800
C1016       C  0.64771842  0.38047193  0.20320844     0.12300
H1017       H  0.62250482  0.36794086  0.33843712     0.16800
H1018       H  0.60144392  0.38820127  0.18095489     0.02500
H1019       H  0.62681069  0.30096480  0.23754102     0.17100
H1020       H  0.68791010  0.36638236  0.23850151     0.16900
N1021       N  0.95117129  0.31600149  0.01012891    -0.34400
N1022       N  0.99550442  0.31617019  0.08903054    -0.55000
N1023       N  0.53987262  0.31383597  0.00876188    -0.34400
N1024       N  0.99554179  0.31241150  0.93083265    -0.55000
C1025       C  0.93446734  0.31158978  0.05183436     0.29200
C1026       C  0.93450396  0.30989115  0.96904496     0.29200
C1027       C  0.55701412  0.31007171  0.05012551     0.29100
C1028       C  0.55666556  0.30942808  0.96715556     0.29100
C1029       C  0.97188895  0.32187330  0.11818244     0.37800
C1030       C  0.51969721  0.31999227  0.11729662     0.37800
C1031       C  0.97184959  0.31768926  0.90157945     0.37800
C1032       C  0.51863696  0.31699470  0.90045707     0.37800
C1033       C  0.90684434  0.30246034  0.03708053    -0.19700
C1034       C  0.90686440  0.30140109  0.98478135    -0.19700
C1035       C  0.58506278  0.30286768  0.03458818    -0.19700
C1036       C  0.58485361  0.30251707  0.98225427    -0.19700
C1037       C  0.98054426  0.33030031  0.16661303    -0.20800
C1038       C  0.51140073  0.32946117  0.16539109    -0.20800
C1039       C  0.98039281  0.32548835  0.85278940    -0.20800
C1040       C  0.50967310  0.32470510  0.85183860    -0.20800
C1041       C  0.94268687  0.31824171  0.10231236    -0.16100
C1042       C  0.94264631  0.31493620  0.91802051    -0.16100
C1043       C  0.54802528  0.31463967  0.91631573    -0.16100
C1044       C  0.54884611  0.31619898  0.10093917    -0.16100
H1045       H  0.88840065  0.29770096  0.06144031     0.16800
H1046       H  0.88843470  0.29570981  0.96098255     0.16800
H1047       H  0.60396527  0.29922279  0.05844130     0.16800
H1048       H  0.60354155  0.29850355  0.95805701     0.16800
H1049       H  0.96674604  0.33586921  0.19862874     0.15100
H1050       H  0.52544650  0.33550386  0.19681463     0.15100
H1051       H  0.96651479  0.33081520  0.82076127     0.15100
H1052       H  0.52327901  0.32994818  0.81942256     0.15100
H1053       H  0.97113439  0.32680619  0.00940773     0.28300
H1054       H  0.51923408  0.32315380  0.00879138     0.28300
C1055       C  0.64572479  0.15611356  0.27276876     0.88700
C1056       C  0.66402279  0.13600957  0.23790520    -0.51600
C1057       C  0.64744583  0.11962324  0.20525744     0.11600
C1058       C  0.61457645  0.12494319  0.21007344     0.22500
C1059       C  0.62693469  0.17512924  0.23693111    -0.52300
C1060       C  0.61056671  0.15855111  0.20420177     0.11700
C1061       C  0.62421361  0.13511781  0.29936147    -0.51800
C1062       C  0.60807903  0.11881649  0.26611429     0.12300
H1063       H  0.68761794  0.13420173  0.23998281     0.16800
H1064       H  0.60118479  0.11148371  0.18339478     0.02500
H1065       H  0.62616228  0.19921507  0.23809235     0.17100
H1066       H  0.62229292  0.13296687  0.34038941     0.16900
N1067       N  0.95083575  0.99964331  0.29469896    -0.34400
N1068       N  0.99533270  0.04535700  0.29493418    -0.55000
N1069       N  0.54094452  0.00003609  0.29589408    -0.34400
N1070       N  0.99529907  0.45452496  0.29449771    -0.55000
C1071       C  0.93445632  0.02380009  0.28420002     0.29200
C1072       C  0.93453607  0.47587524  0.28317936     0.29200
C1073       C  0.55748130  0.02434584  0.28711850     0.29100
C1074       C  0.55735662  0.47579397  0.28735412     0.29100
C1075       C  0.97165303  0.06272840  0.30145432     0.37800
C1076       C  0.51935929  0.06316995  0.30021295     0.37800
C1077       C  0.97169655  0.43690137  0.29980234     0.37800
C1078       C  0.51939117  0.43666252  0.29926400     0.37800
C1079       C  0.90745579  0.01495373  0.26578712    -0.19700
C1080       C  0.90780791  0.48492619  0.26389307    -0.19700
C1081       C  0.58530663  0.01563896  0.27263316    -0.19700
C1082       C  0.58500415  0.48476093  0.27231025    -0.19700
C1083       C  0.98006402  0.09165756  0.31186445    -0.20800
C1084       C  0.51058001  0.09214327  0.30938062    -0.20800
C1085       C  0.98024242  0.40791051  0.30931741    -0.20800
C1086       C  0.51074114  0.40747439  0.30661712    -0.20800
C1087       C  0.94270784  0.05347586  0.29333455    -0.16100
C1088       C  0.94276084  0.44608289  0.29127545    -0.16100
C1089       C  0.54850754  0.44592950  0.29278532    -0.16100
C1090       C  0.54851080  0.05411355  0.29353944    -0.16100
H1091       H  0.88942418  0.02900797  0.25459895     0.16800
H1092       H  0.89005337  0.47099612  0.25106114     0.16800
H1093       H  0.60366165  0.02977621  0.26356444     0.16800
H1094       H  0.60331081  0.47079214  0.26219673     0.16800
H1095       H  0.96613760  0.11075959  0.31766162     0.15100
H1096       H  0.52425926  0.11146835  0.31470047     0.15100
H1097       H  0.96641709  0.38863191  0.31394162     0.15100
H1098       H  0.52451475  0.38811316  0.31077099     0.15100
H1099       H  0.97043825  0.99956609  0.31444610     0.28300
H1100       H  0.52040239  0.99982905  0.31232400     0.28300
N1101       N  0.66977784  0.45635223  0.01433227    -0.34400
N1102       N  0.67170252  0.99992326  0.93538587    -0.55000
N1103       N  0.66988249  0.04481408  0.01469925    -0.34400
N1104       N  0.67170817  0.99995543  0.09393728    -0.55000
C1105       C  0.67578373  0.43969460  0.97286034     0.29200
C1106       C  0.67602530  0.43969333  0.05568118     0.29200
C1107       C  0.67532334  0.06171333  0.97328045     0.29100
C1108       C  0.67560662  0.06162966  0.05612563     0.29100
C1109       C  0.66475246  0.47721950  0.90653589     0.37800
C1110       C  0.66577783  0.02393665  0.90637754     0.37800
C1111       C  0.66438886  0.47697219  0.12214141     0.37800
C1112       C  0.66509670  0.02392653  0.12252510     0.37800
C1113       C  0.68630106  0.41222146  0.98797416    -0.19700
C1114       C  0.68648531  0.41222826  0.04033244    -0.19700
C1115       C  0.68480130  0.08955080  0.98852862    -0.19700
C1116       C  0.68502657  0.08948531  0.04085696    -0.19700
C1117       C  0.65557002  0.48605498  0.85861695    -0.20800
C1118       C  0.65740310  0.01509004  0.85801168    -0.20800
C1119       C  0.65442934  0.48562489  0.16970166    -0.20800
C1120       C  0.65510183  0.01506963  0.16994584    -0.20800
C1121       C  0.66888376  0.44757015  0.92234086    -0.16100
C1122       C  0.66919969  0.44744641  0.10629001    -0.16100
C1123       C  0.66932717  0.05355427  0.10682163    -0.16100
C1124       C  0.66904363  0.05364279  0.92257825    -0.16100
H1125       H  0.69244648  0.39382174  0.96377938     0.16800
H1126       H  0.69275461  0.39380561  0.06438281     0.16800
H1127       H  0.69030684  0.10819879  0.96443190     0.16800
H1128       H  0.69067483  0.10809671  0.06493888     0.16800
H1129       H  0.64968042  0.47199835  0.82686135     0.15100
H1130       H  0.65168879  0.02913722  0.82614018     0.15100
H1131       H  0.64810548  0.47142969  0.20101666     0.15100
H1132       H  0.64841668  0.02911880  0.20123624     0.15100
H1133       H  0.65788569  0.47598408  0.01444260     0.28300
H1134       H  0.65874085  0.02475663  0.01471120     0.28300
N1135       N  0.95037732  0.18326614  0.01080747    -0.34400
N1136       N  0.99474311  0.18421197  0.08972641    -0.55000
N1137       N  0.53900516  0.18530495  0.01042000    -0.34400
N1138       N  0.99443642  0.18733045  0.93163177    -0.55000
C1139       C  0.93364367  0.18745558  0.05252170     0.29200
C1140       C  0.93346899  0.18860348  0.96970611     0.29200
C1141       C  0.55596914  0.18936488  0.05192665     0.29100
C1142       C  0.55562387  0.19097686  0.96913129     0.29100
C1143       C  0.97129906  0.17733170  0.11846998     0.37800
C1144       C  0.51866425  0.17894468  0.11833916     0.37800
C1145       C  0.97094511  0.18109185  0.90249435     0.37800
C1146       C  0.51795513  0.18345078  0.90196950     0.37800
C1147       C  0.90574576  0.19569980  0.03776578    -0.19700
C1148       C  0.90562805  0.19638664  0.98544302    -0.19700
C1149       C  0.58372689  0.19784208  0.03681250    -0.19700
C1150       C  0.58351681  0.19883068  0.98452208    -0.19700
C1151       C  0.98015742  0.16747611  0.16600629    -0.20800
C1152       C  0.51009306  0.16947325  0.16623102    -0.20800
C1153       C  0.97974437  0.17291056  0.85402093    -0.20800
C1154       C  0.50924655  0.17551968  0.85331971    -0.20800
C1155       C  0.94206570  0.18094245  0.10293732    -0.16100
C1156       C  0.94169603  0.18347044  0.91874897    -0.16100
C1157       C  0.54721730  0.18595066  0.91823311    -0.16100
C1158       C  0.54785356  0.18275042  0.10247568    -0.16100
H1159       H  0.88718544  0.19995377  0.06213515     0.16800
H1160       H  0.88697586  0.20129397  0.96165458     0.16800
H1161       H  0.60240363  0.20209917  0.06090218     0.16800
H1162       H  0.60200607  0.20397373  0.96049711     0.16800
H1163       H  0.96649638  0.16063564  0.19746776     0.15100
H1164       H  0.52394906  0.16322723  0.19779957     0.15100
H1165       H  0.96604600  0.16689456  0.82212146     0.15100
H1166       H  0.52301724  0.16987677  0.82131046     0.15100
H1167       H  0.97064542  0.17304880  0.01021437     0.28300
H1168       H  0.51882080  0.17495284  0.00987857     0.28300
C1169       C  0.84472607  0.15487769  0.27369922     0.88700
C1170       C  0.86375403  0.17360962  0.23790458    -0.51600
C1171       C  0.88007294  0.15680238  0.20552322     0.11600
C1172       C  0.87587506  0.12328223  0.21161803     0.22500
C1173       C  0.82639932  0.13482617  0.23875151    -0.52300
C1174       C  0.84302272  0.11824846  0.20641072     0.11700
C1175       C  0.86599470  0.13377643  0.30071392    -0.51800
C1176       C  0.88213330  0.11727403  0.26773847     0.12300
H1177       H  0.86462585  0.19769660  0.23868487     0.16800
H1178       H  0.88928608  0.10967691  0.18516068     0.02500
H1179       H  0.80277361  0.13333369  0.24032214     0.17100
H1180       H  0.86785991  0.13182284  0.34177540     0.16900
N1181       N  0.82128309  0.04431275  0.01424919    -0.34400
N1182       N  0.81982022  0.49894529  0.93611477    -0.55000
N1183       N  0.81992507  0.45416464  0.01535954    -0.34400
N1184       N  0.81949996  0.49915960  0.09398453    -0.55000
C1185       C  0.81518279  0.06105805  0.97294074     0.29200
C1186       C  0.81551717  0.06100048  0.05574482     0.29200
C1187       C  0.81466640  0.43723277  0.97398461     0.29100
C1188       C  0.81409184  0.43742460  0.05675673     0.29100
C1189       C  0.82544287  0.02337372  0.90647121     0.37800
C1190       C  0.82566233  0.47482057  0.90744496     0.37800
C1191       C  0.82693696  0.02337326  0.12188806     0.37800
C1192       C  0.82548506  0.47511236  0.12275411     0.37800
C1193       C  0.80524556  0.08870917  0.98831070    -0.19700
C1194       C  0.80543671  0.08866870  0.04066940    -0.19700
C1195       C  0.80515078  0.40938868  0.98919261    -0.19700
C1196       C  0.80474543  0.40952083  0.04152338    -0.19700
C1197       C  0.83425090  0.01455457  0.85833844    -0.20800
C1198       C  0.83484876  0.48343320  0.85938623    -0.20800
C1199       C  0.83665615  0.01467007  0.16956279    -0.20800
C1200       C  0.83571275  0.48383523  0.17009322    -0.20800
C1201       C  0.82137814  0.05300930  0.92224714    -0.16100
C1202       C  0.82219579  0.05293803  0.10626617    -0.16100
C1203       C  0.82042741  0.44557637  0.10734596    -0.16100
C1204       C  0.82141434  0.44525977  0.92350333    -0.16100
H1205       H  0.79920613  0.10722097  0.96428257     0.16800
H1206       H  0.79960076  0.10716816  0.06487670     0.16800
H1207       H  0.79990847  0.39065297  0.96511123     0.16800
H1208       H  0.79918785  0.39088213  0.06561410     0.16800
H1209       H  0.83987063  0.02859930  0.82641946     0.15100
H1210       H  0.84062918  0.46923896  0.82774509     0.15100
H1211       H  0.84293408  0.02882012  0.20095758     0.15100
H1212       H  0.84190838  0.46970601  0.20157363     0.15100
H1213       H  0.83288195  0.02451427  0.01411571     0.28300
H1214       H  0.83115326  0.47415556  0.01538524     0.28300
C1215       C  0.82569270  0.07647036  0.14318890    -0.11100
C1216       C  0.83152574  0.09610021  0.17254860    -0.12700
C1217       C  0.90079188  0.16895173  0.17019718    -0.11100
C1218       C  0.91929346  0.17597028  0.14003183    -0.12700
C1219       C  0.92053876  0.07609022  0.29018667    -0.11100
C1220       C  0.90273177  0.09519579  0.28327176    -0.12700
C1221       C  0.58967474  0.17093077  0.16917028    -0.11100
C1222       C  0.57091597  0.17793556  0.13932883    -0.12700
C1223       C  0.65903640  0.09706896  0.17216520    -0.11100
C1224       C  0.66527972  0.07717371  0.14352274    -0.12700
C1225       C  0.58767604  0.09649655  0.28150360    -0.11100
C1226       C  0.57027930  0.07709463  0.28921106    -0.12700
C1227       C  0.57193083  0.32116369  0.13766229    -0.11100
C1228       C  0.59048974  0.32852288  0.16760950    -0.12700
C1229       C  0.65916173  0.40334030  0.17057599    -0.11100
C1230       C  0.66527399  0.42357823  0.14255079    -0.12700
C1231       C  0.57034693  0.42310098  0.28717945    -0.11100
C1232       C  0.58779208  0.40381549  0.27888025    -0.12700
C1233       C  0.90099381  0.32972425  0.16928423    -0.11100
C1234       C  0.91970578  0.32288762  0.13929406    -0.12700
C1235       C  0.83034539  0.40221039  0.17274049    -0.11100
C1236       C  0.82405284  0.42204414  0.14414238    -0.12700
C1237       C  0.92062476  0.42342734  0.28705257    -0.11100
C1238       C  0.90281869  0.40427334  0.28020275    -0.12700
C1239       C  0.58732054  0.09623569  0.74558522    -0.11100
C1240       C  0.56986904  0.07695024  0.73704546    -0.12700
C1241       C  0.65784812  0.09715941  0.85743394    -0.11100
C1242       C  0.66432214  0.07734412  0.88616673    -0.12700
C1243       C  0.57019326  0.18059229  0.88164293    -0.11100
C1244       C  0.58923920  0.17261675  0.85322131    -0.12700
C1245       C  0.58974780  0.32860725  0.85068160    -0.11100
C1246       C  0.57084365  0.32040409  0.87935196    -0.12700
C1247       C  0.58769033  0.40415085  0.74197438    -0.11100
C1248       C  0.56967676  0.42283183  0.73344205    -0.12700
C1249       C  0.66424045  0.42384595  0.88592532    -0.11100
C1250       C  0.65778916  0.40425093  0.85671773    -0.12700
C1251       C  0.82544557  0.07654264  0.88541235    -0.11100
C1252       C  0.83179363  0.09582591  0.85564487    -0.12700
C1253       C  0.90323234  0.09470016  0.74394904    -0.11100
C1254       C  0.92116027  0.07572481  0.73682483    -0.12700
C1255       C  0.90006131  0.17033849  0.85271953    -0.11100
C1256       C  0.91873703  0.17814840  0.88204590    -0.12700
C1257       C  0.83238508  0.40235507  0.85765598    -0.11100
C1258       C  0.82588578  0.42168120  0.88710986    -0.12700
C1259       C  0.90069893  0.32785078  0.85246417    -0.11100
C1260       C  0.91954281  0.32000239  0.88145383    -0.12700
C1261       C  0.92096331  0.42295312  0.73685008    -0.11100
C1262       C  0.90297957  0.40399559  0.74423313    -0.12700
C1263       C  0.81075440  0.31677558  0.68522285    -0.11100
C1264       C  0.82493551  0.32950194  0.71690386    -0.12700
C1265       C  0.82560446  0.16937963  0.71503931    -0.11100
C1266       C  0.81155314  0.18251715  0.68361330    -0.12700
C1267       C  0.66628278  0.33069316  0.71626491    -0.11100
C1268       C  0.68014398  0.31792494  0.68416846    -0.12700
C1269       C  0.81441260  0.31385420  0.34207301    -0.11100
C1270       C  0.82826908  0.32661944  0.31000890    -0.12700
C1271       C  0.67841151  0.18386708  0.68486124    -0.11100
C1272       C  0.66460626  0.17115180  0.71717151    -0.12700
C1273       C  0.66357440  0.32753814  0.30817283    -0.11100
C1274       C  0.67734856  0.31487521  0.34062111    -0.12700
C1275       C  0.81385515  0.18576089  0.34131263    -0.11100
C1276       C  0.82743104  0.17245652  0.30946257    -0.12700
C1277       C  0.67700802  0.18597922  0.34111502    -0.11100
C1278       C  0.66315441  0.17323880  0.30896714    -0.12700
O1279       O  0.68527166  0.69373133  0.42745095    -0.73100
O1280       O  0.71258325  0.71827356  0.36817646    -0.52000
C1281       C  0.69209404  0.70048748  0.38143640     0.80600
O1282       O  0.68880903  0.80880735  0.59809877    -0.57700
O1283       O  0.71361967  0.78171444  0.65750225    -0.50700
C1284       C  0.69503638  0.80153710  0.64412953     0.72600
O1285       O  0.68643690  0.80603333  0.42648925    -0.72300
O1286       O  0.71348530  0.78109750  0.36735076    -0.52800
C1287       C  0.69338804  0.79938004  0.38049679     0.78600
O1288       O  0.68787585  0.69100425  0.59858552    -0.57400
O1289       O  0.71330226  0.71754952  0.65786688    -0.50500
C1290       C  0.69413713  0.69829012  0.64459895     0.75200
Zr1291     Zr  0.70303168  0.70486333  0.51283400     2.54700
O1292       O  0.65013633  0.70144787  0.51709006    -0.78000
O1293       O  0.70794164  0.65105934  0.50986080    -0.91400
Zr1294     Zr  0.70234966  0.79334359  0.51235616     2.64700
O1295       O  0.64927335  0.79221817  0.51358300    -0.96400
O1296       O  0.70257084  0.84731616  0.50847519    -0.78400
O1297       O  0.70195088  0.74904891  0.46381183    -0.81800
O1298       O  0.70187559  0.74918784  0.56135923    -2.16500
O1299       O  0.80347769  0.69058112  0.59884996    -0.65200
O1300       O  0.77743462  0.71675778  0.65788687    -0.49700
C1301       C  0.79660908  0.69742295  0.64484482     0.73600
O1302       O  0.80501000  0.80636773  0.42731596    -0.58100
O1303       O  0.77872837  0.78070971  0.36797841    -0.50100
C1304       C  0.79848355  0.79931344  0.38131681     0.75400
O1305       O  0.80290842  0.80841577  0.59886849    -0.69500
O1306       O  0.77720114  0.78201305  0.65799956    -0.48100
C1307       C  0.79620464  0.80145087  0.64483069     0.76800
O1308       O  0.80553127  0.69313243  0.42664013    -0.64800
O1309       O  0.77796013  0.71755140  0.36752998    -0.52000
C1310       C  0.79827050  0.69951866  0.38063032     0.75200
Zr1311     Zr  0.78952872  0.70553258  0.51281773     2.77500
O1312       O  0.84264111  0.70694754  0.51397353    -0.95500
O1313       O  0.78805798  0.65153352  0.51075674    -0.76400
Zr1314     Zr  0.78882295  0.79378846  0.51297178     2.70100
O1315       O  0.84188321  0.79389774  0.51473701    -0.77600
O1316       O  0.78681515  0.84776617  0.51085674    -0.96700
Zr1317     Zr  0.74580881  0.74941034  0.41562986     2.21500
Zr1318     Zr  0.74569981  0.74939161  0.60998858     2.11100
O1319       O  0.78976789  0.74965226  0.56197854    -2.45400
O1320       O  0.78967072  0.74969189  0.46388567    -0.77400
O1321       O  0.74623745  0.70444450  0.56240051    -0.69600
O1322       O  0.74567172  0.79446127  0.46320379    -2.30600
O1323       O  0.74626264  0.70441150  0.46326052    -2.26800
O1324       O  0.74549499  0.79433184  0.56220433    -0.71400
H1325       H  0.68489510  0.74918069  0.58321066     0.80600
H1326       H  0.74564740  0.81157131  0.44108501     0.81700
H1327       H  0.80663013  0.74976779  0.58406583     0.83900
H1328       H  0.74637755  0.68741386  0.44093564     0.81600
H1329       H  0.71968381  0.85329000  0.52898817     0.44600
H1330       H  0.77440993  0.85324289  0.54020743     0.43600
H1331       H  0.84736599  0.77276457  0.51094516     0.43200
H1332       H  0.84777351  0.71710143  0.54614299     0.41200
H1333       H  0.80574486  0.64564650  0.49165514     0.44300
H1334       H  0.71748339  0.64680665  0.47688594     0.39100
H1335       H  0.64330080  0.72198258  0.51098543     0.45200
H1336       H  0.64416345  0.78024053  0.54385721     0.41600
H1337       H  0.84861094  0.68606595  0.51934304     0.46500
H1338       H  0.68773517  0.64373736  0.50556384     0.45300
H1339       H  0.64348653  0.81271918  0.52263883     0.45400
H1340       H  0.80666778  0.85416733  0.52080565     0.45800
C1341       C  0.84376306  0.84563786  0.75247771     0.88700
C1342       C  0.86247370  0.82567305  0.78686212    -0.51600
C1343       C  0.87947713  0.84133433  0.81987678     0.11600
C1344       C  0.87609381  0.87510398  0.81577958     0.22500
C1345       C  0.82618481  0.86547522  0.78873796    -0.52300
C1346       C  0.84334615  0.88094045  0.82170735     0.11700
C1347       C  0.86548354  0.86662171  0.72628205    -0.51800
C1348       C  0.88230396  0.88199112  0.75986558     0.12300
H1349       H  0.86275400  0.80160650  0.78451581     0.16800
H1350       H  0.88996324  0.88782887  0.84277400     0.02500
H1351       H  0.80260201  0.86770480  0.78752260     0.17100
H1352       H  0.86717940  0.86929177  0.68531846     0.16900
C1353       C  0.84395746  0.65333731  0.75348554     0.88700
C1354       C  0.82653224  0.63355827  0.79014584    -0.51600
C1355       C  0.84382023  0.61813013  0.82306813     0.11600
C1356       C  0.87654680  0.62403144  0.81676281     0.22500
C1357       C  0.86280412  0.67338392  0.78752313    -0.52300
C1358       C  0.87994306  0.65782844  0.82052369     0.11700
C1359       C  0.86559037  0.63227251  0.72731147    -0.51800
C1360       C  0.88252972  0.61701077  0.76082848     0.12300
H1361       H  0.80296574  0.63119481  0.78899790     0.16800
H1362       H  0.89054460  0.61137258  0.84366007     0.02500
H1363       H  0.86310457  0.69743894  0.78489451     0.17100
H1364       H  0.86712759  0.62943666  0.68635993     0.16900
C1365       C  0.64745686  0.84595905  0.75162593     0.88700
C1366       C  0.66496108  0.86557829  0.78846172    -0.51600
C1367       C  0.64774403  0.88110395  0.82137802     0.11600
C1368       C  0.61498709  0.87545064  0.81473691     0.22500
C1369       C  0.62843823  0.82600769  0.78542001    -0.52300
C1370       C  0.61137655  0.84168366  0.81829702     0.11700
C1371       C  0.62599651  0.86715568  0.72531839    -0.51800
C1372       C  0.60911026  0.88253141  0.75877722     0.12300
H1373       H  0.68855646  0.86764944  0.78758635     0.16800
H1374       H  0.60100188  0.88814061  0.84160552     0.02500
H1375       H  0.62795797  0.80195269  0.78272556     0.17100
H1376       H  0.62446117  0.86991054  0.68434961     0.16900
C1377       C  0.64568650  0.65510874  0.75256847     0.88700
C1378       C  0.62666314  0.67515378  0.78620840    -0.51600
C1379       C  0.60972987  0.65960054  0.81946170     0.11600
C1380       C  0.61347853  0.62579266  0.81634425     0.22500
C1381       C  0.66335535  0.63575265  0.78954901    -0.52300
C1382       C  0.64628601  0.62030946  0.82276830     0.11700
C1383       C  0.62427351  0.63364418  0.72674754    -0.51800
C1384       C  0.60754203  0.61830217  0.76052138     0.12300
H1385       H  0.62612042  0.69919478  0.78319874     0.16800
H1386       H  0.59964600  0.61316553  0.84352089     0.00800
H1387       H  0.68695024  0.63367570  0.78839815     0.17100
H1388       H  0.62280834  0.63053911  0.68584809     0.16900
N1389       N  0.99568588  0.95461928  0.73385745    -0.34400
N1390       N  0.54070776  0.49954258  0.72820390    -0.55000
N1391       N  0.99541186  0.54460889  0.73231726    -0.34400
N1392       N  0.95036214  0.49953214  0.73210467    -0.55000
C1393       C  0.51959173  0.93829019  0.72185995     0.29200
C1394       C  0.97199857  0.93793157  0.72315148     0.29200
C1395       C  0.51946050  0.56098319  0.72029810     0.29100
C1396       C  0.97158475  0.56098208  0.72132968     0.29100
C1397       C  0.55759571  0.97604545  0.74029281     0.37800
C1398       C  0.55720213  0.52339455  0.73981495     0.37800
C1399       C  0.93435759  0.97533049  0.74421065     0.37800
C1400       C  0.93412224  0.52352715  0.74364676     0.37800
C1401       C  0.51081557  0.91055519  0.70484300    -0.19700
C1402       C  0.98075871  0.91050048  0.70474549    -0.19700
C1403       C  0.51071118  0.58851293  0.70232690    -0.19700
C1404       C  0.98010112  0.58838663  0.70241803    -0.19700
C1405       C  0.58502655  0.98479525  0.75678376    -0.20800
C1406       C  0.58442177  0.51446449  0.75695400    -0.20800
C1407       C  0.90734046  0.98406245  0.76262296    -0.20800
C1408       C  0.90709474  0.51484001  0.76212312    -0.20800
C1409       C  0.54867049  0.94653623  0.73204450    -0.16100
C1410       C  0.94302675  0.94592261  0.73456859    -0.16100
C1411       C  0.94275219  0.55292125  0.73363220    -0.16100
C1412       C  0.54841075  0.55296432  0.73180432    -0.16100
H1413       H  0.52461118  0.89203627  0.69440949     0.16800
H1414       H  0.96696765  0.89206241  0.69392814     0.16800
H1415       H  0.52452018  0.60698635  0.69175073     0.16800
H1416       H  0.96613129  0.60665739  0.69142444     0.16800
H1417       H  0.60315746  0.97070341  0.76738221     0.15100
H1418       H  0.60246072  0.52843441  0.76840161     0.15100
H1419       H  0.88946630  0.96995534  0.77436374     0.15100
H1420       H  0.88921366  0.52898640  0.77372138     0.15100
H1421       H  0.99572929  0.97429259  0.75448832     0.28300
H1422       H  0.99551581  0.52513289  0.75349466     0.28300
C1423       C  0.84581247  0.84372258  0.27362426     0.88700
C1424       C  0.82724248  0.86353685  0.23872164    -0.51600
C1425       C  0.84359072  0.87989933  0.20571697     0.11600
C1426       C  0.87648996  0.87483275  0.21017351     0.22500
C1427       C  0.86462838  0.82470074  0.23785558    -0.52300
C1428       C  0.88074592  0.84125606  0.20475123     0.11700
C1429       C  0.86727004  0.86502102  0.29972661    -0.51800
C1430       C  0.88315377  0.88127268  0.26598988     0.12300
H1431       H  0.80364699  0.86521905  0.24108302     0.16800
H1432       H  0.88968131  0.88826553  0.18314659     0.02500
H1433       H  0.86561881  0.80062978  0.23935365     0.17100
H1434       H  0.86937004  0.86735342  0.34069614     0.16900
C1435       C  0.64609113  0.84367124  0.27224484     0.88700
C1436       C  0.62460179  0.86503459  0.29817430    -0.51600
C1437       C  0.60875010  0.88130153  0.26438432     0.11600
C1438       C  0.61546105  0.87476340  0.20859048     0.22500
C1439       C  0.62730145  0.82462818  0.23650771    -0.52300
C1440       C  0.61123640  0.84116768  0.20329165     0.11700
C1441       C  0.66468139  0.86343693  0.23727015    -0.51800
C1442       C  0.64836565  0.87981122  0.20418316     0.12300
H1443       H  0.62249493  0.86743974  0.33912633     0.16800
H1444       H  0.60229226  0.88816432  0.18147249     0.02500
H1445       H  0.62629130  0.80055859  0.23808870     0.17100
H1446       H  0.68826747  0.86514995  0.23976747     0.16900
N1447       N  0.95146688  0.81506170  0.01047028    -0.34400
N1448       N  0.99598409  0.81462762  0.08900485    -0.55000
N1449       N  0.54009091  0.81449776  0.00919145    -0.34400
N1450       N  0.99558149  0.81204681  0.93072842    -0.55000
C1451       C  0.93490654  0.81046085  0.05228865     0.29200
C1452       C  0.93469061  0.80909257  0.96946284     0.29200
C1453       C  0.55719471  0.81106512  0.05066788     0.29100
C1454       C  0.55701425  0.81011127  0.96778242     0.29100
C1455       C  0.97250247  0.82091668  0.11813666     0.37800
C1456       C  0.51958644  0.82089198  0.11717761     0.37800
C1457       C  0.97179798  0.81748644  0.90179287     0.37800
C1458       C  0.51907680  0.81734991  0.90086697     0.37800
C1459       C  0.90726640  0.80129739  0.03770235    -0.19700
C1460       C  0.90712858  0.80043891  0.98537569    -0.19700
C1461       C  0.58537697  0.80421245  0.03540731    -0.19700
C1462       C  0.58527153  0.80365634  0.98310597    -0.19700
C1463       C  0.98137220  0.83011345  0.16603458    -0.20800
C1464       C  0.51098309  0.83095258  0.16473798    -0.20800
C1465       C  0.98021990  0.82577934  0.85316661    -0.20800
C1466       C  0.51017467  0.82541870  0.85237342    -0.20800
C1467       C  0.94324104  0.81717226  0.10268616    -0.16100
C1468       C  0.94263559  0.81451746  0.91843884    -0.16100
C1469       C  0.54839499  0.81499856  0.91689434    -0.16100
C1470       C  0.54880063  0.81714377  0.10132724    -0.16100
H1471       H  0.88890315  0.79644142  0.06219091     0.16800
H1472       H  0.88863292  0.79481887  0.96168434     0.16800
H1473       H  0.60428768  0.80094001  0.05939977     0.16800
H1474       H  0.60406983  0.79983740  0.95907655     0.16800
H1475       H  0.96770913  0.83633132  0.19787427     0.15100
H1476       H  0.52482997  0.83769309  0.19601421     0.15100
H1477       H  0.96624887  0.83130351  0.82136076     0.15100
H1478       H  0.52381564  0.83113693  0.82023673     0.15100
H1479       H  0.97140573  0.82593386  0.00971060     0.28300
H1480       H  0.51932637  0.82352464  0.00895328     0.28300
C1481       C  0.64442542  0.65718985  0.27264134     0.88700
C1482       C  0.66311435  0.63750011  0.23764994    -0.51600
C1483       C  0.64686968  0.62098743  0.20464786     0.11600
C1484       C  0.61392707  0.62584833  0.20917357     0.22500
C1485       C  0.62550310  0.67609416  0.23687241    -0.52300
C1486       C  0.60952751  0.65944091  0.20367692     0.11700
C1487       C  0.62312719  0.63574117  0.29868948    -0.51800
C1488       C  0.60734639  0.61933472  0.26506872     0.12300
H1489       H  0.68671654  0.63596029  0.24004249     0.16800
H1490       H  0.60081336  0.61232587  0.18216987     0.02500
H1491       H  0.62444349  0.70016543  0.23826242     0.17100
H1492       H  0.62114132  0.63332918  0.33966376     0.16900
N1493       N  0.95067195  0.49991760  0.29555791    -0.34400
N1494       N  0.99554783  0.54542931  0.29483830    -0.55000
N1495       N  0.54081538  0.49993291  0.29739087    -0.34400
N1496       N  0.99575231  0.95441343  0.29290624    -0.55000
C1497       C  0.93465505  0.52415215  0.28391683     0.29200
C1498       C  0.93472084  0.97553418  0.28274204     0.29200
C1499       C  0.55733564  0.52413660  0.28766920     0.29100
C1500       C  0.55767804  0.97599593  0.28607480     0.29100
C1501       C  0.97195905  0.56289104  0.30146286     0.37800
C1502       C  0.51936525  0.56309512  0.30070931     0.37800
C1503       C  0.97224238  0.93669226  0.29824581     0.37800
C1504       C  0.51979008  0.93664775  0.29667663     0.37800
C1505       C  0.90788035  0.51544025  0.26437274    -0.19700
C1506       C  0.90763107  0.98444576  0.26483913    -0.19700
C1507       C  0.58498482  0.51526479  0.27248318    -0.19700
C1508       C  0.58543637  0.98513561  0.27201650    -0.19700
C1509       C  0.98049029  0.59180113  0.31176962    -0.20800
C1510       C  0.51067578  0.59216420  0.30919474    -0.20800
C1511       C  0.98090311  0.90770419  0.30750920    -0.20800
C1512       C  0.51120262  0.90738497  0.30335031    -0.20800
C1513       C  0.94302659  0.55380726  0.29289170    -0.16100
C1514       C  0.94324089  0.94579371  0.29035857    -0.16100
C1515       C  0.54891923  0.94606533  0.29098150    -0.16100
C1516       C  0.54846985  0.55396475  0.29361552    -0.16100
H1517       H  0.89018732  0.52959910  0.25199644     0.16800
H1518       H  0.88976499  0.97042328  0.25279763     0.16800
H1519       H  0.60327165  0.52929433  0.26255369     0.16800
H1520       H  0.60390289  0.97128033  0.26234237     0.16800
H1521       H  0.96664207  0.61096336  0.31754880     0.15100
H1522       H  0.52441120  0.61151323  0.31376644     0.15100
H1523       H  0.96716394  0.88836590  0.31217380     0.15100
H1524       H  0.52500489  0.88800883  0.30696970     0.15100
H1525       H  0.97002718  0.49981807  0.31608663     0.28300
H1526       H  0.52042580  0.49985580  0.31442733     0.28300
N1527       N  0.67115182  0.95507939  0.01453183    -0.34400
N1528       N  0.67070963  0.50123421  0.93549687    -0.55000
N1529       N  0.66958563  0.54599735  0.01480181    -0.34400
N1530       N  0.67066003  0.50108562  0.09368923    -0.55000
C1531       C  0.67650494  0.93812655  0.97311231     0.29200
C1532       C  0.67669289  0.93825255  0.05601450     0.29200
C1533       C  0.67540483  0.56280809  0.97343759     0.29100
C1534       C  0.67556299  0.56266198  0.05628197     0.29100
C1535       C  0.66634303  0.97582069  0.90626109     0.37800
C1536       C  0.66468919  0.52531900  0.90675762     0.37800
C1537       C  0.66545695  0.97585231  0.12243130     0.37800
C1538       C  0.66430073  0.52506645  0.12242418     0.37800
C1539       C  0.68586207  0.91025690  0.98843888    -0.19700
C1540       C  0.68602577  0.91034701  0.04077949    -0.19700
C1541       C  0.68548781  0.59040950  0.98875952    -0.19700
C1542       C  0.68561400  0.59031090  0.04111424    -0.19700
C1543       C  0.65776542  0.98455934  0.85793242    -0.20800
C1544       C  0.65553259  0.51659527  0.85875508    -0.20800
C1545       C  0.65530567  0.98452303  0.16987206    -0.20800
C1546       C  0.65438057  0.51619128  0.16988641    -0.20800
C1547       C  0.67008762  0.94614539  0.92238791    -0.16100
C1548       C  0.67015823  0.94628433  0.10667309    -0.16100
C1549       C  0.66893636  0.55467652  0.10688352    -0.16100
C1550       C  0.66871899  0.55494154  0.92281046    -0.16100
H1551       H  0.69119918  0.89152977  0.96440164     0.16800
H1552       H  0.69144369  0.89167032  0.06488302     0.16800
H1553       H  0.69138062  0.60895208  0.96470211     0.16800
H1554       H  0.69158920  0.60878170  0.06527536     0.16800
H1555       H  0.65236073  0.97044332  0.82598805     0.15100
H1556       H  0.64960145  0.53073054  0.82712327     0.15100
H1557       H  0.64880930  0.97034850  0.20110833     0.15100
H1558       H  0.64799769  0.53024023  0.20136400     0.15100
H1559       H  0.66008976  0.97517070  0.01453626     0.28300
H1560       H  0.65801773  0.52617929  0.01473133     0.28300
N1561       N  0.95183610  0.68539188  0.01042320    -0.34400
N1562       N  0.99604288  0.68555088  0.08944295    -0.55000
N1563       N  0.53829206  0.68632160  0.00949702    -0.34400
N1564       N  0.99598273  0.68926184  0.93119016    -0.55000
C1565       C  0.93513241  0.68977463  0.05212394     0.29200
C1566       C  0.93510982  0.69129568  0.96932253     0.29200
C1567       C  0.55508704  0.69103514  0.05098900     0.29100
C1568       C  0.55471013  0.69260045  0.96820164     0.29100
C1569       C  0.97250065  0.67882685  0.11808986     0.37800
C1570       C  0.51813482  0.67966974  0.11737009     0.37800
C1571       C  0.97241558  0.68285933  0.90227618     0.37800
C1572       C  0.51730055  0.68380866  0.90141705     0.37800
C1573       C  0.90748109  0.69882866  0.03736896    -0.19700
C1574       C  0.90746207  0.69976826  0.98504070    -0.19700
C1575       C  0.58248584  0.70064578  0.03590260    -0.19700
C1576       C  0.58225274  0.70161850  0.98357342    -0.19700
C1577       C  0.98123487  0.66902529  0.16571649    -0.20800
C1578       C  0.50970028  0.66974740  0.16507722    -0.20800
C1579       C  0.98114758  0.67370685  0.85429544    -0.20800
C1580       C  0.50855511  0.67507006  0.85320904    -0.20800
C1581       C  0.94330093  0.68270088  0.10244912    -0.16100
C1582       C  0.94316781  0.68566544  0.91845005    -0.16100
C1583       C  0.54653324  0.68692465  0.91741374    -0.16100
C1584       C  0.54723054  0.68385472  0.10141307    -0.16100
H1585       H  0.88900025  0.70343129  0.06173523     0.16800
H1586       H  0.88896782  0.70520798  0.96121680     0.16800
H1587       H  0.60095853  0.70564514  0.06004866     0.16800
H1588       H  0.60051470  0.70748397  0.95950756     0.16800
H1589       H  0.96748429  0.66236896  0.19717284     0.15100
H1590       H  0.52364323  0.66320949  0.19635440     0.15100
H1591       H  0.96738984  0.66722454  0.82274628     0.15100
H1592       H  0.52230150  0.66909172  0.82134656     0.15100
H1593       H  0.97180943  0.67456671  0.00974625     0.28300
H1594       H  0.51854990  0.67506839  0.00903860     0.28300
C1595       C  0.84542946  0.65535389  0.27215273     0.88700
C1596       C  0.86421830  0.67440236  0.23638449    -0.51600
C1597       C  0.88071398  0.65785886  0.20379256     0.11600
C1598       C  0.87682427  0.62425412  0.20965098     0.22500
C1599       C  0.82728223  0.63517910  0.23718026    -0.52300
C1600       C  0.84399672  0.61884554  0.20464591     0.11700
C1601       C  0.86696592  0.63443097  0.29886582    -0.51800
C1602       C  0.88321032  0.61817501  0.26571675     0.12300
H1603       H  0.86489814  0.69849001  0.23748508     0.16800
H1604       H  0.89032462  0.61082444  0.18307262     0.02500
H1605       H  0.80369086  0.63329451  0.23908155     0.17100
H1606       H  0.86882149  0.63229057  0.33990308     0.16900
N1607       N  0.82087023  0.54381816  0.01470162    -0.34400
N1608       N  0.81975313  0.99937807  0.93561769    -0.55000
N1609       N  0.82080097  0.95435810  0.01479342    -0.34400
N1610       N  0.82056604  0.99930514  0.09341354    -0.55000
C1611       C  0.81518338  0.56058056  0.97325679     0.29200
C1612       C  0.81514574  0.56065267  0.05603450     0.29200
C1613       C  0.81573848  0.93734935  0.97341925     0.29100
C1614       C  0.81582149  0.93736424  0.05626173     0.29100
C1615       C  0.82588486  0.52287360  0.90706403     0.37800
C1616       C  0.82553410  0.97531446  0.90672458     0.37800
C1617       C  0.82633612  0.52315264  0.12230180     0.37800
C1618       C  0.82658334  0.97530320  0.12232679     0.37800
C1619       C  0.80540813  0.58834011  0.98838134    -0.19700
C1620       C  0.80536901  0.58838227  0.04072822    -0.19700
C1621       C  0.80725779  0.90917381  0.98872409    -0.19700
C1622       C  0.80727703  0.90919070  0.04105334    -0.19700
C1623       C  0.83498484  0.51395399  0.85915007    -0.20800
C1624       C  0.83431110  0.98404787  0.85849664    -0.20800
C1625       C  0.83628739  0.51436773  0.16977875    -0.20800
C1626       C  0.83638349  0.98414205  0.16987067    -0.20800
C1627       C  0.82186848  0.55253000  0.92276375    -0.16100
C1628       C  0.82195225  0.55273260  0.10653860    -0.16100
C1629       C  0.82200273  0.94566600  0.10689458    -0.16100
C1630       C  0.82172415  0.94566261  0.92272982    -0.16100
H1631       H  0.79977390  0.60691843  0.96420749     0.16800
H1632       H  0.79972946  0.60701400  0.06477694     0.16800
H1633       H  0.80242761  0.89030345  0.96468966     0.16800
H1634       H  0.80249372  0.89032453  0.06512890     0.16800
H1635       H  0.84087816  0.52794335  0.82731447     0.15100
H1636       H  0.84001445  0.96993543  0.82670779     0.15100
H1637       H  0.84294961  0.52846577  0.20099879     0.15100
H1638       H  0.84247920  0.97008761  0.20150519     0.15100
H1639       H  0.83238418  0.52396937  0.01481077     0.28300
H1640       H  0.83127252  0.97475203  0.01463105     0.28300
C1641       C  0.82624550  0.57640373  0.14293984    -0.11100
C1642       C  0.83255173  0.59629222  0.17149052    -0.12700
C1643       C  0.90160236  0.67030602  0.16891094    -0.11100
C1644       C  0.92031894  0.67752891  0.13920006    -0.12700
C1645       C  0.92111592  0.57660137  0.28869106    -0.11100
C1646       C  0.90363209  0.59592653  0.28117820    -0.12700
C1647       C  0.58891137  0.67177422  0.16813275    -0.11100
C1648       C  0.57036860  0.67891393  0.13800174    -0.12700
C1649       C  0.65877104  0.59841224  0.17188730    -0.11100
C1650       C  0.66501575  0.57837025  0.14351784    -0.12700
C1651       C  0.58735116  0.59651859  0.28007773    -0.11100
C1652       C  0.57021236  0.57691942  0.28819557    -0.12700
C1653       C  0.57170375  0.82187543  0.13837846    -0.11100
C1654       C  0.59040056  0.82879397  0.16830315    -0.12700
C1655       C  0.66013811  0.90248514  0.17155405    -0.11100
C1656       C  0.66627933  0.92258071  0.14326748    -0.12700
C1657       C  0.57094244  0.92332048  0.28629884    -0.11100
C1658       C  0.58840241  0.90389962  0.27896643    -0.12700
C1659       C  0.90165500  0.82890903  0.16977517    -0.11100
C1660       C  0.92035642  0.82194584  0.13982816    -0.12700
C1661       C  0.83181784  0.90234956  0.17270599    -0.11100
C1662       C  0.82571715  0.92219464  0.14391974    -0.12700
C1663       C  0.92124605  0.92303963  0.28679419    -0.11100
C1664       C  0.90363832  0.90368836  0.28044955    -0.12700
C1665       C  0.58699764  0.59584164  0.74574930    -0.11100
C1666       C  0.56971044  0.57635142  0.73745183    -0.12700
C1667       C  0.65751273  0.59831103  0.85744415    -0.11100
C1668       C  0.66411467  0.57869914  0.88648535    -0.12700
C1669       C  0.56959430  0.68140536  0.88097995    -0.11100
C1670       C  0.58852256  0.67323255  0.85242001    -0.12700
C1671       C  0.59009392  0.82824876  0.85119393    -0.11100
C1672       C  0.57118668  0.82037324  0.87995907    -0.12700
C1673       C  0.58802407  0.90429384  0.74367371    -0.11100
C1674       C  0.57021697  0.92334265  0.73608264    -0.12700
C1675       C  0.66541077  0.92245975  0.88585783    -0.11100
C1676       C  0.65881675  0.90300487  0.85645617    -0.12700
C1677       C  0.82646335  0.57613410  0.88626622    -0.11100
C1678       C  0.83290277  0.59583270  0.85736464    -0.12700
C1679       C  0.90355477  0.59520315  0.74576575    -0.11100
C1680       C  0.92128186  0.57611967  0.73800502    -0.12700
C1681       C  0.90112033  0.67145590  0.85366702    -0.11100
C1682       C  0.92004004  0.67975354  0.88221057    -0.12700
C1683       C  0.83226092  0.90283334  0.85642534    -0.11100
C1684       C  0.82593135  0.92222026  0.88591224    -0.12700
C1685       C  0.90047448  0.82785034  0.85345320    -0.11100
C1686       C  0.91938295  0.81986256  0.88223703    -0.12700
C1687       C  0.92142609  0.92274081  0.73800663    -0.11100
C1688       C  0.90351183  0.90371296  0.74502328    -0.12700
C1689       C  0.81161061  0.81642430  0.68453605    -0.11100
C1690       C  0.82565749  0.82927966  0.71627769    -0.12700
C1691       C  0.82580592  0.66960158  0.71699431    -0.11100
C1692       C  0.81193491  0.68239837  0.68481398    -0.12700
C1693       C  0.66557216  0.82955855  0.71543073    -0.11100
C1694       C  0.67958131  0.81662961  0.68369044    -0.12700
C1695       C  0.81462143  0.81357863  0.34173418    -0.11100
C1696       C  0.82856613  0.82652175  0.30995971    -0.12700
C1697       C  0.67806735  0.68388579  0.68422096    -0.11100
C1698       C  0.66376061  0.67134507  0.71604118    -0.12700
C1699       C  0.66333547  0.82651720  0.30879633    -0.11100
C1700       C  0.67729784  0.81366073  0.34073517    -0.12700
C1701       C  0.81415874  0.68521301  0.34065905    -0.11100
C1702       C  0.82791672  0.67245554  0.30834832    -0.12700
C1703       C  0.67550752  0.68686064  0.34164774    -0.11100
C1704       C  0.66154039  0.67436526  0.30931591    -0.12700
loop_ 
_geom_bond_atom_site_label_1 
_geom_bond_atom_site_label_2 
_geom_bond_distance 
_geom_bond_site_symmetry_2 
_ccdc_geom_bond_type 
O1          Zr13   2.439       .  S
O1            C3   1.286       .  A
O2          Zr39   2.414       .  S
O2            C3   1.283       .  A
C3          C425   1.428       .  S
O4          Zr16   2.437       .  S
O4            C6   1.285       .  A
O5          Zr40   2.417       .  S
O5            C6   1.283       .  A
C6          C416   1.429       .  S
O7          Zr16   2.438       .  S
O7            C9   1.286       .  A
O8          Zr39   2.416       .  S
O8            C9   1.283       .  A
C9          C422   1.429       .  S
O10         Zr13   2.439       .  S
O10          C12   1.286       .  A
O11         Zr40   2.417       .  S
O11          C12   1.283       .  A
C12         C419   1.429       .  S
Zr13         O14   2.434       .  S
Zr13         O15   2.436       .  S
Zr13         O19   2.369       .  S
Zr13         O20   2.372       .  S
Zr13         O43   2.373       .  S
Zr13         O45   2.374       .  S
O14          H57   0.990       .  S
O15          H56   0.990       .  S
O15          H60   0.990       .  S
Zr16         O17   2.436       .  S
Zr16         O18   2.434       .  S
Zr16         O20   2.370       .  S
Zr16         O19   2.368       .  S
Zr16         O44   2.372       .  S
Zr16         O46   2.372       .  S
O17          H58   0.990       .  S
O17          H61   0.990       .  S
O18          H51   0.990       .  S
O19         Zr39   2.377       .  S
O20         Zr40   2.383       .  S
O20          H47   0.968       .  S
O21         Zr33   2.441       .  S
O21          C23   1.286       .  A
O22         Zr40   2.420       .  S
O22          C23   1.284       .  A
C23         C414   1.432       .  S
O24         Zr36   2.439       .  S
O24          C26   1.286       .  A
O25         Zr39   2.420       .  S
O25          C26   1.284       .  A
C26         C417   1.432       .  S
O27         Zr36   2.440       .  S
O27          C29   1.286       .  A
O28         Zr40   2.416       .  S
O28          C29   1.283       .  A
C29         C411   1.430       .  S
O30         Zr33   2.441       .  S
O30          C32   1.286       .  A
O31         Zr39   2.419       .  S
O31          C32   1.284       .  A
C32         C423   1.432       .  S
Zr33         O34   2.436       .  S
Zr33         O35   2.434       .  S
Zr33         O41   2.370       .  S
Zr33         O42   2.371       .  S
Zr33         O45   2.373       .  S
Zr33         O43   2.372       .  S
O34          H54   0.990       .  S
O34          H59   0.990       .  S
O35          H55   0.990       .  S
Zr36         O37   2.433       .  S
Zr36         O38   2.435       .  S
Zr36         O42   2.370       .  S
Zr36         O41   2.370       .  S
Zr36         O46   2.371       .  S
Zr36         O44   2.370       .  S
O37          H53   0.990       .  S
O38          H52   0.990       .  S
O38          H62   0.990       .  S
Zr39         O42   2.377       .  S
Zr39         O44   2.382       .  S
Zr39         O45   2.385       .  S
Zr40         O41   2.382       .  S
Zr40         O43   2.380       .  S
Zr40         O46   2.380       .  S
O41          H49   0.967       .  S
O44          H48   0.966       .  S
O45          H50   0.965       .  S
C63          C64   1.537       .  S
C63          C69   1.537       .  S
C63          C67   1.535       .  S
C63         C412   1.463       .  S
C64          H71   1.086       .  S
C64          C65   1.364       .  D
C65          C66   1.534       .  S
C65         C407   1.441       .  S
C66          C70   1.531       .  S
C66          C68   1.533       .  S
C66          H72   1.112       .  S
C67          H73   1.087       .  S
C67          C68   1.363       .  D
C68         C405   1.438       .  S
C69          H74   1.087       .  S
C69          C70   1.362       .  D
C70         C410   1.437       .  S
C75          C76   1.537       .  S
C75          C81   1.537       .  S
C75          C79   1.536       .  S
C75         C413   1.465       .  S
C76          H83   1.086       .  S
C76          C77   1.364       .  D
C77          C78   1.533       .  S
C77         C400   1.440       .  S
C78          C82   1.530       .  S
C78          C80   1.534       .  S
C78          H84   1.112       .  S
C79          H85   1.086       .  S
C79          C80   1.363       .  D
C80         C403   1.441       .  S
C81          H86   1.087       .  S
C81          C82   1.363       .  D
C82         C401   1.436       .  S
C87          C88   1.536       .  S
C87          C93   1.535       .  S
C87          C91   1.537       .  S
C87         C415   1.462       .  S
C88          H95   1.086       .  S
C88          C89   1.363       .  D
C89          C90   1.534       .  S
C89         C398   1.440       .  S
C90          C94   1.531       .  S
C90          C92   1.534       .  S
C90          H96   1.112       .  S
C91          H97   1.086       .  S
C91          C92   1.364       .  D
C92         C393   1.441       .  S
C93          H98   1.087       .  S
C93          C94   1.361       .  D
C94         C395   1.433       .  S
C99         C100   1.536       .  S
C99         C105   1.535       .  S
C99         C103   1.536       .  S
C99         C420   1.462       .  S
C100        H107   1.086       .  S
C100        C101   1.363       .  D
C101        C102   1.535       .  S
C101        C392   1.439       .  S
C102        C106   1.531       .  S
C102        C104   1.533       .  S
C102        H108   1.112       .  S
C103        H109   1.086       .  S
C103        C104   1.363       .  D
C104        C389   1.439       .  S
C105        H110   1.087       .  S
C105        C106   1.361       .  D
C106        C387   1.434       .  S
N111        C116   1.351       .  A
N111        C967   1.350       .  A
N111        H143   1.039       .  S
N112        C120   1.348   1_565  A
N112        C545   1.348       .  A
N113        C118   1.351       .  A
N113        C969   1.351       .  A
N113        H144   1.039       .  S
N114        C122   1.348   1_565  A
N114        C547   1.349       .  A
C115        N963   1.350   1_455  A
C115        C123   1.387       .  A
C115        C131   1.409       .  A
C116        C132   1.410       .  A
C116        C124   1.387       .  A
C117        N965   1.350   1_455  A
C117        C125   1.387       .  A
C117        C134   1.408       .  A
C118        C133   1.410       .  A
C118        C126   1.387       .  A
C119        N538   1.347       .  A
C119        C131   1.407       .  A
C119        C127   1.388       .  A
C120        C134   1.407       .  A
C120        C128   1.387       .  A
C121        N540   1.349       .  A
C121        C129   1.387       .  A
C121        C132   1.408       .  A
C122        C130   1.387       .  A
C122        C133   1.408       .  A
C123        C976   1.378   1_455  A
C123        H135   1.082       .  S
C124        C975   1.378       .  A
C124        H136   1.082       .  S
C125        C978   1.377   1_455  A
C125        H137   1.082       .  S
C126        C977   1.377       .  A
C126        H138   1.082       .  S
C127        C554   1.375       .  A
C127        H139   1.082       .  S
C128        C553   1.375   1_545  A
C128        H140   1.082       .  S
C129        C556   1.375       .  A
C129        H141   1.082       .  S
C130        C555   1.375   1_545  A
C130        H142   1.082       .  S
C131        C396   1.441       .  S
C132        C409   1.445       .  S
C133        C402   1.444       .  S
C134        C388   1.442       .  S
C145        C146   1.536       .  S
C145        C151   1.537       .  S
C145        C149   1.539       .  S
C145        C418   1.465       .  S
C146        H153   1.087       .  S
C146        C147   1.363       .  D
C147        C148   1.531       .  S
C147        C383   1.437       .  S
C148        C152   1.528       .  S
C148        C150   1.533       .  S
C148        H154   1.112       .  S
C149        H155   1.086       .  S
C149        C150   1.366       .  D
C150        C381   1.443       .  S
C151        H156   1.087       .  S
C151        C152   1.362       .  D
C152        C386   1.434       .  S
C157        C158   1.535       .  S
C157        C163   1.537       .  S
C157        C161   1.537       .  S
C157        C421   1.462       .  S
C158        H165   1.087       .  S
C158        C159   1.361       .  D
C159        C160   1.529       .  S
C159        C380   1.432       .  S
C160        C164   1.532       .  S
C160        C162   1.533       .  S
C160        H166   1.112       .  S
C161        H167   1.086       .  S
C161        C162   1.364       .  D
C162        C376   1.440       .  S
C163        H168   1.086       .  S
C163        C164   1.363       .  D
C164        C377   1.439       .  S
N169        C174   1.352   1_554  A
N169        C173   1.353       .  A
N169        H201   1.038       .  S
N170        C177   1.352       .  A
N170       C1030   1.352       .  A
N171        C176   1.352   1_554  A
N171        C175   1.353       .  A
N171        H202   1.035       .  S
N172        C179   1.352       .  A
N172       C1032   1.353       .  A
C173        C181   1.387       .  A
C173        C189   1.413       .  A
C174        C190   1.412       .  A
C174        C182   1.387       .  A
C175        C183   1.388       .  A
C175        C192   1.415       .  A
C176        C191   1.413       .  A
C176        C184   1.387       .  A
C177        C189   1.413       .  A
C177        C185   1.386       .  A
C178       N1022   1.351   1_455  A
C178        C192   1.414       .  A
C178        C186   1.388       .  A
C179        C187   1.387       .  A
C179        C190   1.413       .  A
C180       N1024   1.352   1_455  A
C180        C188   1.387       .  A
C180        C191   1.414       .  A
C181        C182   1.377   1_554  A
C181        H193   1.082       .  S
C182        H194   1.082       .  S
C183        C184   1.376   1_554  A
C183        H195   1.082       .  S
C184        H196   1.082       .  S
C185       C1038   1.374       .  A
C185        H197   1.083       .  S
C186       C1037   1.374   1_455  A
C186        H198   1.083       .  S
C187       C1040   1.374       .  A
C187        H199   1.082       .  S
C188       C1039   1.374   1_455  A
C188        H200   1.082       .  S
C189        C382   1.452       .  S
C190        C408   1.450       .  S
C191        C394   1.451       .  S
C192        C375   1.449       .  S
C203        C204   1.538       .  S
C203        C209   1.536       .  S
C203        C207   1.536       .  S
C203        C426   1.461       .  S
C204        H211   1.086       .  S
C204        C205   1.364       .  D
C205        C206   1.530       .  S
C205        C371   1.437       .  S
C206        C210   1.528       .  S
C206        C208   1.533       .  S
C206        H212   1.112       .  S
C207        H213   1.086       .  S
C207        C208   1.363       .  D
C208        C369   1.438       .  S
C209        H214   1.087       .  S
C209        C210   1.361       .  D
C210        C373   1.433       .  S
N215        C219   1.352   1_565  A
N215        C646   1.352       .  A
N215        H247   1.038       .  S
N216        C223   1.349       .  A
N216       C1076   1.349       .  A
N217        C221   1.352       .  A
N217        C648   1.352   1_545  A
N217        H248   1.038   1_545  S
N218        C225   1.350       .  A
N218       C1078   1.350       .  A
C219        C227   1.388       .  A
C219        C235   1.412       .  A
C220        N641   1.352       .  A
C220        C236   1.412       .  A
C220        C228   1.388       .  A
C221        C229   1.388       .  A
C221        C238   1.413       .  A
C222        N643   1.351       .  A
C222        C237   1.412       .  A
C222        C230   1.388       .  A
C223        C235   1.408       .  A
C223        C231   1.387       .  A
C224       N1068   1.349   1_455  A
C224        C238   1.408       .  A
C224        C232   1.387       .  A
C225        C233   1.387       .  A
C225        C236   1.409       .  A
C226       N1070   1.349   1_455  A
C226        C234   1.388       .  A
C226        C237   1.409       .  A
C227        C654   1.375   1_545  A
C227        H239   1.082       .  S
C228        C653   1.374       .  A
C228        H240   1.082       .  S
C229        C656   1.375   1_545  A
C229        H241   1.082       .  S
C230        C655   1.375       .  A
C230        H242   1.082       .  S
C231       C1084   1.370       .  A
C231        H243   1.082       .  S
C232       C1083   1.371   1_455  A
C232        H244   1.082       .  S
C233       C1086   1.370       .  A
C233        H245   1.082       .  S
C234       C1085   1.371   1_455  A
C234        H246   1.082       .  S
C235        C367   1.443       .  S
C236        C385   1.445       .  S
C237        C379   1.442       .  S
C238        C374   1.443       .  S
N249        C254   1.352       .  A
N249        C253   1.352   1_554  A
N249        H281   1.038       .  S
N250        C258   1.351       .  A
N250        C683   1.351   1_545  A
N251        C256   1.352       .  A
N251        C255   1.352   1_554  A
N251        H282   1.038       .  S
N252        C260   1.350       .  A
N252        C685   1.350   1_545  A
C253        C261   1.387       .  A
C253        C269   1.411       .  A
C254        C270   1.412       .  A
C254        C262   1.387       .  A
C255        C263   1.387       .  A
C255        C272   1.410       .  A
C256        C271   1.411       .  A
C256        C264   1.387       .  A
C257        N676   1.351       .  A
C257        C269   1.411       .  A
C257        C265   1.387       .  A
C258        C272   1.412       .  A
C258        C266   1.387       .  A
C259        N678   1.350       .  A
C259        C267   1.387       .  A
C259        C270   1.411       .  A
C260        C268   1.387       .  A
C260        C271   1.411       .  A
C261        C262   1.377   1_556  A
C261        H273   1.082       .  S
C262        H274   1.082       .  S
C263        C264   1.376   1_556  A
C263        H275   1.082       .  S
C264        H276   1.082       .  S
C265        C692   1.375       .  A
C265        H277   1.082       .  S
C266        C691   1.375   1_545  A
C266        H278   1.082       .  S
C267        C694   1.376       .  A
C267        H279   1.082       .  S
C268        C693   1.376   1_545  A
C268        H280   1.082       .  S
C269        C397   1.449       .  S
C270        C378   1.448       .  S
C271        C372   1.447       .  S
C272        C390   1.448       .  S
N283        C288   1.352   1_554  A
N283        C287   1.352       .  A
N283        H315   1.036       .  S
N284        C291   1.351       .  A
N284       C1144   1.352       .  A
N285        C290   1.351   1_554  A
N285        C289   1.352       .  A
N285        H316   1.037       .  S
N286        C293   1.352       .  A
N286       C1146   1.352       .  A
C287        C295   1.388       .  A
C287        C303   1.414       .  A
C288        C304   1.412       .  A
C288        C296   1.387       .  A
C289        C297   1.387       .  A
C289        C306   1.411       .  A
C290        C305   1.411       .  A
C290        C298   1.387       .  A
C291        C303   1.414       .  A
C291        C299   1.388       .  A
C292       N1136   1.350   1_455  A
C292        C306   1.411       .  A
C292        C300   1.387       .  A
C293        C301   1.387       .  A
C293        C304   1.413       .  A
C294       N1138   1.351   1_455  A
C294        C302   1.387       .  A
C294        C305   1.412       .  A
C295        C296   1.376   1_554  A
C295        H307   1.082       .  S
C296        H308   1.083       .  S
C297        C298   1.377   1_554  A
C297        H309   1.082       .  S
C298        H310   1.082       .  S
C299       C1152   1.374       .  A
C299        H311   1.082       .  S
C300       C1151   1.374   1_455  A
C300        H312   1.083       .  S
C301       C1154   1.374       .  A
C301        H313   1.083       .  S
C302       C1153   1.374   1_455  A
C302        H314   1.082       .  S
C303        C366   1.449       .  S
C304        C404   1.450       .  S
C305        C391   1.448       .  S
C306        C370   1.447       .  S
C317        C318   1.537       .  S
C317        C323   1.537       .  S
C317        C321   1.538       .  S
C317        C424   1.465       .  S
C318        H325   1.086       .  S
C318        C319   1.364       .  D
C319        C320   1.532       .  S
C319        C365   1.439       .  S
C320        C324   1.528       .  S
C320        C322   1.531       .  S
C320        H326   1.112       .  S
C321        H327   1.086       .  S
C321        C322   1.364       .  D
C322        C364   1.440       .  S
C323        H328   1.087       .  S
C323        C324   1.362       .  D
C324        C368   1.432       .  S
N329        C334   1.352       .  A
N329        C333   1.351   1_554  A
N329        H361   1.038       .  S
N330        C338   1.350       .  A
N330        C763   1.350       .  A
N331        C336   1.351       .  A
N331        C335   1.351   1_554  A
N331        H362   1.038       .  S
N332        C340   1.350       .  A
N332        C765   1.350       .  A
C333        C341   1.388       .  A
C333        C349   1.412       .  A
C334        C350   1.412       .  A
C334        C342   1.387       .  A
C335        C343   1.387       .  A
C335        C352   1.411       .  A
C336        C351   1.410       .  A
C336        C344   1.388       .  A
C337        N756   1.351   1_545  A
C337        C349   1.412       .  A
C337        C345   1.387       .  A
C338        C352   1.411       .  A
C338        C346   1.387       .  A
C339        N758   1.351   1_545  A
C339        C347   1.387       .  A
C339        C350   1.412       .  A
C340        C348   1.387       .  A
C340        C351   1.411       .  A
C341        C342   1.377   1_556  A
C341        H353   1.082       .  S
C342        H354   1.082       .  S
C343        C344   1.377   1_556  A
C343        H355   1.082       .  S
C344        H356   1.083       .  S
C345        C772   1.375   1_545  A
C345        H357   1.082       .  S
C346        C771   1.375       .  A
C346        H358   1.082       .  S
C347        C774   1.376   1_545  A
C347        H359   1.082       .  S
C348        C773   1.376       .  A
C348        H360   1.082       .  S
C349        C399   1.448       .  S
C350        C363   1.450       .  S
C351        C384   1.446       .  S
C352        C406   1.447       .  S
C363        C364   1.206       .  T
C365        C366   1.205       .  T
C367        C368   1.201       .  T
C369        C370   1.204       .  T
C371        C372   1.204       .  T
C373        C374   1.201       .  T
C375        C376   1.205       .  T
C377        C378   1.205       .  T
C379        C380   1.201       .  T
C381        C382   1.207       .  T
C383        C384   1.204       .  T
C385        C386   1.202       .  T
C387        C388   1.202       .  T
C389        C390   1.205       .  T
C391        C392   1.205       .  T
C393        C394   1.206       .  T
C395        C396   1.201       .  T
C397        C398   1.206       .  T
C399        C400   1.205       .  T
C401        C402   1.203       .  T
C403        C404   1.206       .  T
C405        C406   1.204       .  T
C407        C408   1.206       .  T
C409        C410   1.203       .  T
C411        C412   1.203       .  T
C413        C414   1.204       .  T
C415        C416   1.202       .  T
C417        C418   1.205       .  T
C419        C420   1.203       .  T
C421        C422   1.203       .  T
C423        C424   1.204       .  T
C425        C426   1.202       .  T
O427       Zr439   2.437       .  S
O427        C429   1.285       .  A
O428       Zr465   2.411       .  S
O428        C429   1.282       .  A
C429        C851   1.426       .  S
O430       Zr442   2.439       .  S
O430        C432   1.286       .  A
O431       Zr466   2.418       .  S
O431        C432   1.284       .  A
C432        C842   1.430       .  S
O433       Zr442   2.444       .  S
O433        C435   1.287       .  A
O434       Zr465   2.418       .  S
O434        C435   1.284       .  A
C435        C848   1.432       .  S
O436       Zr439   2.442       .  S
O436        C438   1.286       .  A
O437       Zr466   2.416       .  S
O437        C438   1.283       .  A
C438        C845   1.431       .  S
Zr439       O440   2.434       .  S
Zr439       O441   2.436       .  S
Zr439       O445   2.373       .  S
Zr439       O446   2.372       .  S
Zr439       O469   2.369       .  S
Zr439       O471   2.373       .  S
O440        H483   0.990       .  S
O441        H482   0.990       .  S
O441        H486   0.990       .  S
Zr442       O443   2.436       .  S
Zr442       O444   2.436       .  S
Zr442       O446   2.373       .  S
Zr442       O445   2.370       .  S
Zr442       O470   2.371       .  S
Zr442       O472   2.372       .  S
O443        H484   0.990       .  S
O443        H487   0.990       .  S
O444        H477   0.990       .  S
O445       Zr465   2.379       .  S
O446       Zr466   2.385       .  S
O446        H473   0.968       .  S
O447       Zr459   2.440       .  S
O447        C449   1.286       .  A
O448       Zr466   2.420       .  S
O448        C449   1.284       .  A
C449        C840   1.431       .  S
O450       Zr462   2.441       .  S
O450        C452   1.287       .  A
O451       Zr465   2.419       .  S
O451        C452   1.284       .  A
C452        C843   1.432       .  S
O453       Zr462   2.438       .  S
O453        C455   1.286       .  A
O454       Zr466   2.419       .  S
O454        C455   1.284       .  A
C455        C837   1.430       .  S
O456       Zr459   2.438       .  S
O456        C458   1.286       .  A
O457       Zr465   2.418       .  S
O457        C458   1.284       .  A
C458        C849   1.430       .  S
Zr459       O460   2.435       .  S
Zr459       O461   2.434       .  S
Zr459       O467   2.370       .  S
Zr459       O468   2.370       .  S
Zr459       O471   2.373       .  S
Zr459       O469   2.371       .  S
O460        H480   0.990       .  S
O460        H485   0.990       .  S
O461        H481   0.990       .  S
Zr462       O463   2.433       .  S
Zr462       O464   2.435       .  S
Zr462       O468   2.370       .  S
Zr462       O467   2.373       .  S
Zr462       O472   2.369       .  S
Zr462       O470   2.369       .  S
O463        H479   0.990       .  S
O464        H478   0.990       .  S
O464        H488   0.990       .  S
Zr465       O468   2.375       .  S
Zr465       O470   2.381       .  S
Zr465       O471   2.387       .  S
Zr466       O467   2.382       .  S
Zr466       O469   2.379       .  S
Zr466       O472   2.378       .  S
O467        H475   0.967       .  S
O470        H474   0.966       .  S
O471        H476   0.965       .  S
C489        C490   1.537       .  S
C489        C495   1.537       .  S
C489        C493   1.536       .  S
C489        C838   1.463       .  S
C490        H497   1.086       .  S
C490        C491   1.363       .  D
C491        C492   1.534       .  S
C491        C833   1.441       .  S
C492        C496   1.530       .  S
C492        C494   1.533       .  S
C492        H498   1.112       .  S
C493        H499   1.086       .  S
C493        C494   1.363       .  D
C494        C831   1.439       .  S
C495        H500   1.087       .  S
C495        C496   1.362       .  D
C496        C836   1.436       .  S
C501        C502   1.537       .  S
C501        C507   1.536       .  S
C501        C505   1.536       .  S
C501        C839   1.464       .  S
C502        H509   1.086       .  S
C502        C503   1.364       .  D
C503        C504   1.533       .  S
C503        C826   1.440       .  S
C504        C508   1.531       .  S
C504        C506   1.534       .  S
C504        H510   1.112       .  S
C505        H511   1.086       .  S
C505        C506   1.363       .  D
C506        C829   1.440       .  S
C507        H512   1.087       .  S
C507        C508   1.362       .  D
C508        C827   1.436       .  S
C513        C514   1.537       .  S
C513        C519   1.536       .  S
C513        C517   1.537       .  S
C513        C841   1.463       .  S
C514        H521   1.086       .  S
C514        C515   1.364       .  D
C515        C516   1.533       .  S
C515        C824   1.440       .  S
C516        C520   1.529       .  S
C516        C518   1.533       .  S
C516        H522   1.112       .  S
C517        H523   1.086       .  S
C517        C518   1.364       .  D
C518        C819   1.441       .  S
C519        H524   1.087       .  S
C519        C520   1.361       .  D
C520        C821   1.432       .  S
C525        C526   1.537       .  S
C525        C531   1.537       .  S
C525        C529   1.535       .  S
C525        C846   1.464       .  S
C526        H533   1.086       .  S
C526        C527   1.364       .  D
C527        C528   1.534       .  S
C527        C818   1.441       .  S
C528        C532   1.531       .  S
C528        C530   1.533       .  S
C528        H534   1.112       .  S
C529        H535   1.086       .  S
C529        C530   1.363       .  D
C530        C815   1.438       .  S
C531        H536   1.087       .  S
C531        C532   1.362       .  D
C532        C813   1.436       .  S
N537        C542   1.352       .  A
N537       C1393   1.351       .  A
N537        H569   1.039       .  S
N538        C546   1.349       .  A
N539        C544   1.350       .  A
N539       C1395   1.351       .  A
N539        H570   1.039       .  S
N540        C548   1.349       .  A
C541       N1389   1.350   1_455  A
C541        C549   1.387       .  A
C541        C557   1.408       .  A
C542        C558   1.410       .  A
C542        C550   1.387       .  A
C543       N1391   1.351   1_455  A
C543        C551   1.387       .  A
C543        C560   1.409       .  A
C544        C559   1.409       .  A
C544        C552   1.387       .  A
C545        C557   1.407       .  A
C545        C553   1.387       .  A
C546        C560   1.407       .  A
C546        C554   1.387       .  A
C547        C555   1.387       .  A
C547        C558   1.408       .  A
C548        C556   1.387       .  A
C548        C559   1.409       .  A
C549       C1402   1.377   1_455  A
C549        H561   1.082       .  S
C550       C1401   1.377       .  A
C550        H562   1.082       .  S
C551       C1404   1.378   1_455  A
C551        H563   1.082       .  S
C552       C1403   1.377       .  A
C552        H564   1.082       .  S
C553        H565   1.082       .  S
C554        H566   1.082       .  S
C555        H567   1.082       .  S
C556        H568   1.082       .  S
C557        C822   1.440       .  S
C558        C835   1.445       .  S
C559        C828   1.444       .  S
C560        C814   1.444       .  S
C571        C572   1.537       .  S
C571        C577   1.537       .  S
C571        C575   1.539       .  S
C571        C844   1.465       .  S
C572        H579   1.086       .  S
C572        C573   1.363       .  D
C573        C574   1.530       .  S
C573        C809   1.436       .  S
C574        C578   1.528       .  S
C574        C576   1.533       .  S
C574        H580   1.112       .  S
C575        H581   1.086       .  S
C575        C576   1.365       .  D
C576        C807   1.442       .  S
C577        H582   1.087       .  S
C577        C578   1.362       .  D
C578        C812   1.434       .  S
C583        C584   1.536       .  S
C583        C589   1.537       .  S
C583        C587   1.537       .  S
C583        C847   1.465       .  S
C584        H591   1.087       .  S
C584        C585   1.361       .  D
C585        C586   1.528       .  S
C585        C806   1.433       .  S
C586        C590   1.530       .  S
C586        C588   1.533       .  S
C586        H592   1.113       .  S
C587        H593   1.086       .  S
C587        C588   1.364       .  D
C588        C802   1.440       .  S
C589        H594   1.086       .  S
C589        C590   1.364       .  D
C590        C803   1.437       .  S
N595        C600   1.352   1_554  A
N595        C599   1.352       .  A
N595        H627   1.038       .  S
N596        C603   1.352       .  A
N596       C1456   1.351       .  A
N597        C602   1.352   1_554  A
N597        C601   1.352       .  A
N597        H628   1.037       .  S
N598        C605   1.351       .  A
N598       C1458   1.351       .  A
C599        C607   1.387       .  A
C599        C615   1.412       .  A
C600        C616   1.411       .  A
C600        C608   1.387       .  A
C601        C609   1.388       .  A
C601        C618   1.413       .  A
C602        C617   1.412       .  A
C602        C610   1.387       .  A
C603        C615   1.412       .  A
C603        C611   1.387       .  A
C604       N1448   1.351   1_455  A
C604        C618   1.413       .  A
C604        C612   1.387       .  A
C605        C613   1.387       .  A
C605        C616   1.412       .  A
C606       N1450   1.353   1_455  A
C606        C614   1.387       .  A
C606        C617   1.414       .  A
C607        C608   1.378   1_554  A
C607        H619   1.082       .  S
C608        H620   1.082       .  S
C609        C610   1.376   1_554  A
C609        H621   1.082       .  S
C610        H622   1.082       .  S
C611       C1464   1.374       .  A
C611        H623   1.083       .  S
C612       C1463   1.374   1_455  A
C612        H624   1.083       .  S
C613       C1466   1.374       .  A
C613        H625   1.083       .  S
C614       C1465   1.375   1_455  A
C614        H626   1.082       .  S
C615        C808   1.451       .  S
C616        C834   1.449       .  S
C617        C820   1.450       .  S
C618        C801   1.449       .  S
C629        C630   1.537       .  S
C629        C635   1.536       .  S
C629        C633   1.535       .  S
C629        C852   1.459       .  S
C630        H637   1.086       .  S
C630        C631   1.363       .  D
C631        C632   1.530       .  S
C631        C797   1.437       .  S
C632        C636   1.528       .  S
C632        C634   1.533       .  S
C632        H638   1.112       .  S
C633        H639   1.087       .  S
C633        C634   1.363       .  D
C634        C795   1.438       .  S
C635        H640   1.087       .  S
C635        C636   1.361       .  D
C636        C799   1.433       .  S
N641        C645   1.352       .  A
N641        H673   1.037       .  S
N642        C649   1.350       .  A
N642       C1502   1.350       .  A
N643        C647   1.353       .  A
N643        H674   1.038       .  S
N644        C651   1.350       .  A
N644       C1504   1.350       .  A
C645        C653   1.388       .  A
C645        C661   1.412       .  A
C646        C662   1.412       .  A
C646        C654   1.388       .  A
C647        C655   1.388       .  A
C647        C664   1.412       .  A
C648        C663   1.412       .  A
C648        C656   1.388       .  A
C649        C661   1.409       .  A
C649        C657   1.387       .  A
C650       N1494   1.349   1_455  A
C650        C664   1.407       .  A
C650        C658   1.387       .  A
C651        C659   1.387       .  A
C651        C662   1.409       .  A
C652       N1496   1.349   1_455  A
C652        C660   1.387       .  A
C652        C663   1.407       .  A
C653        H665   1.082       .  S
C654        H666   1.082       .  S
C655        H667   1.082       .  S
C656        H668   1.082       .  S
C657       C1510   1.370       .  A
C657        H669   1.082       .  S
C658       C1509   1.370   1_455  A
C658        H670   1.082       .  S
C659       C1512   1.370       .  A
C659        H671   1.082       .  S
C660       C1511   1.370   1_455  A
C660        H672   1.082       .  S
C661        C793   1.443       .  S
C662        C811   1.444       .  S
C663        C805   1.443       .  S
C664        C800   1.444       .  S
N675        C680   1.352       .  A
N675        C679   1.352   1_554  A
N675        H707   1.038       .  S
N676        C684   1.351       .  A
N677        C682   1.352       .  A
N677        C681   1.351   1_554  A
N677        H708   1.038       .  S
N678        C686   1.350       .  A
C679        C687   1.387       .  A
C679        C695   1.412       .  A
C680        C696   1.412       .  A
C680        C688   1.388       .  A
C681        C689   1.387       .  A
C681        C698   1.410       .  A
C682        C697   1.411       .  A
C682        C690   1.387       .  A
C683        C695   1.412       .  A
C683        C691   1.387       .  A
C684        C698   1.411       .  A
C684        C692   1.387       .  A
C685        C693   1.387       .  A
C685        C696   1.411       .  A
C686        C694   1.387       .  A
C686        C697   1.411       .  A
C687        C688   1.376   1_556  A
C687        H699   1.082       .  S
C688        H700   1.082       .  S
C689        C690   1.376   1_556  A
C689        H701   1.082       .  S
C690        H702   1.082       .  S
C691        H703   1.082       .  S
C692        H704   1.082       .  S
C693        H705   1.082       .  S
C694        H706   1.082       .  S
C695        C823   1.449       .  S
C696        C804   1.446       .  S
C697        C798   1.446       .  S
C698        C816   1.447       .  S
N709        C714   1.352   1_554  A
N709        C713   1.352       .  A
N709        H741   1.036       .  S
N710        C717   1.351       .  A
N710       C1570   1.351       .  A
N711        C716   1.351   1_554  A
N711        C715   1.352       .  A
N711        H742   1.037       .  S
N712        C719   1.352       .  A
N712       C1572   1.352       .  A
C713        C721   1.388       .  A
C713        C729   1.413       .  A
C714        C730   1.412       .  A
C714        C722   1.387       .  A
C715        C723   1.388       .  A
C715        C732   1.412       .  A
C716        C731   1.411       .  A
C716        C724   1.387       .  A
C717        C729   1.413       .  A
C717        C725   1.388       .  A
C718       N1562   1.351   1_455  A
C718        C732   1.412       .  A
C718        C726   1.387       .  A
C719        C727   1.387       .  A
C719        C730   1.413       .  A
C720       N1564   1.352   1_455  A
C720        C728   1.387       .  A
C720        C731   1.413       .  A
C721        C722   1.377   1_554  A
C721        H733   1.082       .  S
C722        H734   1.082       .  S
C723        C724   1.377   1_554  A
C723        H735   1.082       .  S
C724        H736   1.082       .  S
C725       C1578   1.374       .  A
C725        H737   1.083       .  S
C726       C1577   1.374   1_455  A
C726        H738   1.083       .  S
C727       C1580   1.374       .  A
C727        H739   1.082       .  S
C728       C1579   1.374   1_455  A
C728        H740   1.082       .  S
C729        C792   1.448       .  S
C730        C830   1.449       .  S
C731        C817   1.449       .  S
C732        C796   1.447       .  S
C743        C744   1.536       .  S
C743        C749   1.536       .  S
C743        C747   1.537       .  S
C743        C850   1.463       .  S
C744        H751   1.086       .  S
C744        C745   1.363       .  D
C745        C746   1.533       .  S
C745        C791   1.439       .  S
C746        C750   1.529       .  S
C746        C748   1.531       .  S
C746        H752   1.112       .  S
C747        H753   1.086       .  S
C747        C748   1.364       .  D
C748        C790   1.437       .  S
C749        H754   1.087       .  S
C749        C750   1.361       .  D
C750        C794   1.433       .  S
N755        C760   1.351       .  A
N755        C759   1.351   1_554  A
N755        H787   1.038       .  S
N756        C764   1.351       .  A
N757        C762   1.351       .  A
N757        C761   1.352   1_554  A
N757        H788   1.038       .  S
N758        C766   1.350       .  A
C759        C767   1.387       .  A
C759        C775   1.411       .  A
C760        C776   1.410       .  A
C760        C768   1.388       .  A
C761        C769   1.387       .  A
C761        C778   1.411       .  A
C762        C777   1.411       .  A
C762        C770   1.388       .  A
C763        C775   1.411       .  A
C763        C771   1.387       .  A
C764        C778   1.411       .  A
C764        C772   1.387       .  A
C765        C773   1.387       .  A
C765        C776   1.411       .  A
C766        C774   1.387       .  A
C766        C777   1.412       .  A
C767        C768   1.377   1_556  A
C767        H779   1.082       .  S
C768        H780   1.082       .  S
C769        C770   1.376   1_556  A
C769        H781   1.082       .  S
C770        H782   1.083       .  S
C771        H783   1.082       .  S
C772        H784   1.082       .  S
C773        H785   1.082       .  S
C774        H786   1.082       .  S
C775        C825   1.448       .  S
C776        C789   1.446       .  S
C777        C810   1.445       .  S
C778        C832   1.448       .  S
C789        C790   1.204       .  T
C791        C792   1.205       .  T
C793        C794   1.201       .  T
C795        C796   1.204       .  T
C797        C798   1.204       .  T
C799        C800   1.202       .  T
C801        C802   1.206       .  T
C803        C804   1.204       .  T
C805        C806   1.201       .  T
C807        C808   1.207       .  T
C809        C810   1.203       .  T
C811        C812   1.202       .  T
C813        C814   1.203       .  T
C815        C816   1.204       .  T
C817        C818   1.206       .  T
C819        C820   1.206       .  T
C821        C822   1.200       .  T
C823        C824   1.205       .  T
C825        C826   1.205       .  T
C827        C828   1.203       .  T
C829        C830   1.205       .  T
C831        C832   1.205       .  T
C833        C834   1.206       .  T
C835        C836   1.203       .  T
C837        C838   1.203       .  T
C839        C840   1.204       .  T
C841        C842   1.203       .  T
C843        C844   1.205       .  T
C845        C846   1.204       .  T
C847        C848   1.204       .  T
C849        C850   1.203       .  T
C851        C852   1.201       .  T
O853       Zr865   2.442       .  S
O853        C855   1.287       .  A
O854       Zr891   2.414       .  S
O854        C855   1.283       .  A
C855       C1277   1.430       .  S
O856       Zr868   2.440       .  S
O856        C858   1.286       .  A
O857       Zr892   2.416       .  S
O857        C858   1.283       .  A
C858       C1268   1.430       .  S
O859       Zr868   2.445       .  S
O859        C861   1.287       .  A
O860       Zr891   2.418       .  S
O860        C861   1.283       .  A
C861       C1274   1.434       .  S
O862       Zr865   2.446       .  S
O862        C864   1.287       .  A
O863       Zr892   2.416       .  S
O863        C864   1.283       .  A
C864       C1271   1.433       .  S
Zr865       O866   2.434       .  S
Zr865       O867   2.435       .  S
Zr865       O871   2.373       .  S
Zr865       O872   2.370       .  S
Zr865       O895   2.371       .  S
Zr865       O897   2.375       .  S
O866        H909   0.990       .  S
O867        H908   0.990       .  S
O867        H912   0.990       .  S
Zr868       O869   2.436       .  S
Zr868       O870   2.434       .  S
Zr868       O872   2.372       .  S
Zr868       O871   2.370       .  S
Zr868       O896   2.371       .  S
Zr868       O898   2.374       .  S
O869        H910   0.990       .  S
O869        H913   0.990       .  S
O870        H903   0.990       .  S
O871       Zr891   2.377       .  S
O872       Zr892   2.382       .  S
O872        H899   0.968       .  S
O873       Zr885   2.436       .  S
O873        C875   1.285       .  A
O874       Zr892   2.423       .  S
O874        C875   1.284       .  A
C875       C1266   1.431       .  S
O876       Zr888   2.439       .  S
O876        C878   1.286       .  A
O877       Zr891   2.413       .  S
O877        C878   1.283       .  A
C878       C1269   1.429       .  S
O879       Zr888   2.442       .  S
O879        C881   1.286       .  A
O880       Zr892   2.413       .  S
O880        C881   1.283       .  A
C881       C1263   1.429       .  S
O882       Zr885   2.439       .  S
O882        C884   1.286       .  A
O883       Zr891   2.418       .  S
O883        C884   1.283       .  A
C884       C1275   1.431       .  S
Zr885       O886   2.436       .  S
Zr885       O887   2.434       .  S
Zr885       O893   2.371       .  S
Zr885       O894   2.368       .  S
Zr885       O897   2.372       .  S
Zr885       O895   2.374       .  S
O886        H906   0.990       .  S
O886        H911   0.990       .  S
O887        H907   0.990       .  S
Zr888       O889   2.434       .  S
Zr888       O890   2.435       .  S
Zr888       O894   2.369       .  S
Zr888       O893   2.369       .  S
Zr888       O898   2.370       .  S
Zr888       O896   2.373       .  S
O889        H905   0.990       .  S
O890        H904   0.990       .  S
O890        H914   0.990       .  S
Zr891       O894   2.376       .  S
Zr891       O896   2.383       .  S
Zr891       O897   2.383       .  S
Zr892       O893   2.381       .  S
Zr892       O895   2.379       .  S
Zr892       O898   2.382       .  S
O893        H901   0.967       .  S
O896        H900   0.966       .  S
O897        H902   0.965       .  S
C915        C916   1.537       .  S
C915        C921   1.537       .  S
C915        C919   1.534       .  S
C915       C1264   1.462       .  S
C916        H923   1.086       .  S
C916        C917   1.364       .  D
C917        C918   1.533       .  S
C917       C1259   1.440       .  S
C918        C922   1.530       .  S
C918        C920   1.533       .  S
C918        H924   1.112       .  S
C919        H925   1.087       .  S
C919        C920   1.362       .  D
C920       C1257   1.436       .  S
C921        H926   1.087       .  S
C921        C922   1.362       .  D
C922       C1262   1.436       .  S
C927        C928   1.537       .  S
C927        C933   1.536       .  S
C927        C931   1.537       .  S
C927       C1265   1.463       .  S
C928        H935   1.086       .  S
C928        C929   1.363       .  D
C929        C930   1.532       .  S
C929       C1252   1.440       .  S
C930        C934   1.529       .  S
C930        C932   1.533       .  S
C930        H936   1.112       .  S
C931        H937   1.086       .  S
C931        C932   1.364       .  D
C932       C1255   1.439       .  S
C933        H938   1.087       .  S
C933        C934   1.362       .  D
C934       C1253   1.432       .  S
C939        C940   1.537       .  S
C939        C945   1.534       .  S
C939        C943   1.537       .  S
C939       C1267   1.462       .  S
C940        H947   1.086       .  S
C940        C941   1.364       .  D
C941        C942   1.535       .  S
C941       C1250   1.443       .  S
C942        C946   1.530       .  S
C942        C944   1.535       .  S
C942        H948   1.112       .  S
C943        H949   1.086       .  S
C943        C944   1.364       .  D
C944       C1245   1.442       .  S
C945        H950   1.087       .  S
C945        C946   1.360       .  D
C946       C1247   1.432       .  S
C951        C952   1.536       .  S
C951        C957   1.536       .  S
C951        C955   1.538       .  S
C951       C1272   1.465       .  S
C952        H959   1.087       .  S
C952        C953   1.363       .  D
C953        C954   1.534       .  S
C953       C1244   1.438       .  S
C954        C958   1.530       .  S
C954        C956   1.534       .  S
C954        H960   1.112       .  S
C955        H961   1.086       .  S
C955        C956   1.365       .  D
C956       C1241   1.442       .  S
C957        H962   1.087       .  S
C957        C958   1.361       .  D
C958       C1239   1.435       .  S
N963        C968   1.351       .  A
N963        H995   1.040       .  S
N964       C1397   1.348   1_545  A
N964        C972   1.349       .  A
N965        C970   1.350       .  A
N965        H996   1.039       .  S
N966       C1399   1.348       .  A
N966        C974   1.348   1_565  A
C967        C975   1.388       .  A
C967        C983   1.410       .  A
C968        C984   1.409       .  A
C968        C976   1.387       .  A
C969        C977   1.387       .  A
C969        C986   1.409       .  A
C970        C985   1.408       .  A
C970        C978   1.387       .  A
C971       N1390   1.348       .  A
C971        C983   1.408       .  A
C971        C979   1.388       .  A
C972        C986   1.408       .  A
C972        C980   1.387       .  A
C973       N1392   1.348       .  A
C973        C981   1.387       .  A
C973        C984   1.407       .  A
C974        C982   1.387       .  A
C974        C985   1.407       .  A
C975        H987   1.082       .  S
C976        H988   1.082       .  S
C977        H989   1.082       .  S
C978        H990   1.082       .  S
C979       C1406   1.375       .  A
C979        H991   1.082       .  S
C980       C1405   1.375   1_545  A
C980        H992   1.082       .  S
C981       C1408   1.375       .  A
C981        H993   1.082       .  S
C982       C1407   1.375   1_545  A
C982        H994   1.082       .  S
C983       C1248   1.440       .  S
C984       C1261   1.445       .  S
C985       C1254   1.441       .  S
C986       C1240   1.444       .  S
C997        C998   1.536       .  S
C997       C1003   1.537       .  S
C997       C1001   1.537       .  S
C997       C1270   1.461       .  S
C998       H1005   1.087       .  S
C998        C999   1.363       .  D
C999       C1000   1.531       .  S
C999       C1235   1.436       .  S
C1000      C1004   1.528       .  S
C1000      C1002   1.532       .  S
C1000      H1006   1.112       .  S
C1001      H1007   1.086       .  S
C1001      C1002   1.364       .  D
C1002      C1233   1.440       .  S
C1003      H1008   1.087       .  S
C1003      C1004   1.362       .  D
C1004      C1238   1.434       .  S
C1009      C1010   1.535       .  S
C1009      C1015   1.538       .  S
C1009      C1013   1.538       .  S
C1009      C1273   1.466       .  S
C1010      H1017   1.087       .  S
C1010      C1011   1.361       .  D
C1011      C1012   1.529       .  S
C1011      C1232   1.433       .  S
C1012      C1016   1.531       .  S
C1012      C1014   1.534       .  S
C1012      H1018   1.112       .  S
C1013      H1019   1.086       .  S
C1013      C1014   1.365       .  D
C1014      C1228   1.441       .  S
C1015      H1020   1.086       .  S
C1015      C1016   1.365       .  D
C1016      C1229   1.440       .  S
N1021      C1026   1.352   1_554  A
N1021      C1025   1.352       .  A
N1021      H1053   1.037       .  S
N1022      C1029   1.351       .  A
N1023      C1028   1.352   1_554  A
N1023      C1027   1.353       .  A
N1023      H1054   1.035       .  S
N1024      C1031   1.352       .  A
C1025      C1033   1.387       .  A
C1025      C1041   1.412       .  A
C1026      C1042   1.411       .  A
C1026      C1034   1.387       .  A
C1027      C1035   1.388       .  A
C1027      C1044   1.415       .  A
C1028      C1043   1.414       .  A
C1028      C1036   1.388       .  A
C1029      C1041   1.412       .  A
C1029      C1037   1.387       .  A
C1030      C1044   1.414       .  A
C1030      C1038   1.388       .  A
C1031      C1039   1.387       .  A
C1031      C1042   1.413       .  A
C1032      C1040   1.387       .  A
C1032      C1043   1.415       .  A
C1033      C1034   1.376   1_554  A
C1033      H1045   1.082       .  S
C1034      H1046   1.082       .  S
C1035      C1036   1.376   1_554  A
C1035      H1047   1.082       .  S
C1036      H1048   1.083       .  S
C1037      H1049   1.083       .  S
C1038      H1050   1.083       .  S
C1039      H1051   1.082       .  S
C1040      H1052   1.082       .  S
C1041      C1234   1.449       .  S
C1042      C1260   1.449       .  S
C1043      C1246   1.452       .  S
C1044      C1227   1.450       .  S
C1055      C1056   1.538       .  S
C1055      C1061   1.535       .  S
C1055      C1059   1.538       .  S
C1055      C1278   1.463       .  S
C1056      H1063   1.086       .  S
C1056      C1057   1.364       .  D
C1057      C1058   1.531       .  S
C1057      C1223   1.440       .  S
C1058      C1062   1.529       .  S
C1058      C1060   1.533       .  S
C1058      H1064   1.112       .  S
C1059      H1065   1.086       .  S
C1059      C1060   1.365       .  D
C1060      C1221   1.441       .  S
C1061      H1066   1.087       .  S
C1061      C1062   1.361       .  D
C1062      C1225   1.432       .  S
N1067      C1498   1.351       .  A
N1067      C1071   1.351   1_565  A
N1067      H1099   1.038       .  S
N1068      C1075   1.349       .  A
N1069      C1500   1.352   1_545  A
N1069      C1073   1.352       .  A
N1069      H1100   1.036   1_545  S
N1070      C1077   1.350       .  A
C1071      C1079   1.388       .  A
C1071      C1087   1.411       .  A
C1072      N1493   1.352       .  A
C1072      C1088   1.411       .  A
C1072      C1080   1.388       .  A
C1073      C1081   1.388       .  A
C1073      C1090   1.413       .  A
C1074      N1495   1.352       .  A
C1074      C1089   1.413       .  A
C1074      C1082   1.388       .  A
C1075      C1087   1.408       .  A
C1075      C1083   1.387       .  A
C1076      C1090   1.409       .  A
C1076      C1084   1.387       .  A
C1077      C1085   1.387       .  A
C1077      C1088   1.408       .  A
C1078      C1086   1.387       .  A
C1078      C1089   1.409       .  A
C1079      C1506   1.375   1_545  A
C1079      H1091   1.082       .  S
C1080      C1505   1.375       .  A
C1080      H1092   1.082       .  S
C1081      C1508   1.375   1_545  A
C1081      H1093   1.082       .  S
C1082      C1507   1.375       .  A
C1082      H1094   1.082       .  S
C1083      H1095   1.082       .  S
C1084      H1096   1.082       .  S
C1085      H1097   1.082       .  S
C1086      H1098   1.082       .  S
C1087      C1219   1.442       .  S
C1088      C1237   1.444       .  S
C1089      C1231   1.443       .  S
C1090      C1226   1.443       .  S
N1101      C1106   1.352       .  A
N1101      C1105   1.352   1_554  A
N1101      H1133   1.039       .  S
N1102      C1535   1.352       .  A
N1102      C1110   1.351   1_565  A
N1103      C1108   1.353       .  A
N1103      C1107   1.352   1_554  A
N1103      H1134   1.038       .  S
N1104      C1537   1.350       .  A
N1104      C1112   1.350   1_565  A
C1105      C1113   1.387       .  A
C1105      C1121   1.411       .  A
C1106      C1122   1.411       .  A
C1106      C1114   1.387       .  A
C1107      C1115   1.387       .  A
C1107      C1124   1.412       .  A
C1108      C1123   1.412       .  A
C1108      C1116   1.387       .  A
C1109      N1528   1.351       .  A
C1109      C1121   1.412       .  A
C1109      C1117   1.387       .  A
C1110      C1124   1.413       .  A
C1110      C1118   1.387       .  A
C1111      N1530   1.350       .  A
C1111      C1119   1.387       .  A
C1111      C1122   1.412       .  A
C1112      C1120   1.387       .  A
C1112      C1123   1.411       .  A
C1113      C1114   1.377   1_556  A
C1113      H1125   1.082       .  S
C1114      H1126   1.082       .  S
C1115      C1116   1.376   1_556  A
C1115      H1127   1.082       .  S
C1116      H1128   1.082       .  S
C1117      C1544   1.376       .  A
C1117      H1129   1.082       .  S
C1118      C1543   1.376   1_545  A
C1118      H1130   1.082       .  S
C1119      C1546   1.377       .  A
C1119      H1131   1.082       .  S
C1120      C1545   1.377   1_545  A
C1120      H1132   1.082       .  S
C1121      C1249   1.451       .  S
C1122      C1230   1.449       .  S
C1123      C1224   1.449       .  S
C1124      C1242   1.451       .  S
N1135      C1140   1.352   1_554  A
N1135      C1139   1.352       .  A
N1135      H1167   1.037       .  S
N1136      C1143   1.350       .  A
N1137      C1142   1.351   1_554  A
N1137      C1141   1.353       .  A
N1137      H1168   1.037       .  S
N1138      C1145   1.352       .  A
C1139      C1147   1.387       .  A
C1139      C1155   1.412       .  A
C1140      C1156   1.411       .  A
C1140      C1148   1.387       .  A
C1141      C1149   1.387       .  A
C1141      C1158   1.412       .  A
C1142      C1157   1.411       .  A
C1142      C1150   1.388       .  A
C1143      C1155   1.411       .  A
C1143      C1151   1.387       .  A
C1144      C1158   1.412       .  A
C1144      C1152   1.387       .  A
C1145      C1153   1.387       .  A
C1145      C1156   1.412       .  A
C1146      C1154   1.387       .  A
C1146      C1157   1.413       .  A
C1147      C1148   1.376   1_554  A
C1147      H1159   1.082       .  S
C1148      H1160   1.082       .  S
C1149      C1150   1.376   1_554  A
C1149      H1161   1.082       .  S
C1150      H1162   1.082       .  S
C1151      H1163   1.083       .  S
C1152      H1164   1.083       .  S
C1153      H1165   1.082       .  S
C1154      H1166   1.082       .  S
C1155      C1218   1.446       .  S
C1156      C1256   1.448       .  S
C1157      C1243   1.447       .  S
C1158      C1222   1.451       .  S
C1169      C1170   1.536       .  S
C1169      C1175   1.536       .  S
C1169      C1173   1.539       .  S
C1169      C1276   1.463       .  S
C1170      H1177   1.086       .  S
C1170      C1171   1.363       .  D
C1171      C1172   1.531       .  S
C1171      C1217   1.437       .  S
C1172      C1176   1.527       .  S
C1172      C1174   1.530       .  S
C1172      H1178   1.113       .  S
C1173      H1179   1.086       .  S
C1173      C1174   1.365       .  D
C1174      C1216   1.438       .  S
C1175      H1180   1.087       .  S
C1175      C1176   1.361       .  D
C1176      C1220   1.431       .  S
N1181      C1186   1.351       .  A
N1181      C1185   1.352   1_554  A
N1181      H1213   1.039       .  S
N1182      C1615   1.350       .  A
N1182      C1190   1.350       .  A
N1183      C1188   1.351       .  A
N1183      C1187   1.351   1_554  A
N1183      H1214   1.038       .  S
N1184      C1617   1.350       .  A
N1184      C1192   1.350       .  A
C1185      C1193   1.387       .  A
C1185      C1201   1.410       .  A
C1186      C1202   1.411       .  A
C1186      C1194   1.387       .  A
C1187      C1195   1.387       .  A
C1187      C1204   1.410       .  A
C1188      C1203   1.410       .  A
C1188      C1196   1.388       .  A
C1189      N1608   1.351   1_545  A
C1189      C1201   1.411       .  A
C1189      C1197   1.387       .  A
C1190      C1204   1.411       .  A
C1190      C1198   1.387       .  A
C1191      N1610   1.350   1_545  A
C1191      C1199   1.387       .  A
C1191      C1202   1.411       .  A
C1192      C1200   1.387       .  A
C1192      C1203   1.411       .  A
C1193      C1194   1.377   1_556  A
C1193      H1205   1.082       .  S
C1194      H1206   1.082       .  S
C1195      C1196   1.376   1_556  A
C1195      H1207   1.082       .  S
C1196      H1208   1.083       .  S
C1197      C1624   1.375   1_545  A
C1197      H1209   1.082       .  S
C1198      C1623   1.375       .  A
C1198      H1210   1.082       .  S
C1199      C1626   1.376   1_545  A
C1199      H1211   1.082       .  S
C1200      C1625   1.376       .  A
C1200      H1212   1.082       .  S
C1201      C1251   1.448       .  S
C1202      C1215   1.447       .  S
C1203      C1236   1.445       .  S
C1204      C1258   1.445       .  S
C1215      C1216   1.204       .  T
C1217      C1218   1.204       .  T
C1219      C1220   1.200       .  T
C1221      C1222   1.206       .  T
C1223      C1224   1.205       .  T
C1225      C1226   1.201       .  T
C1227      C1228   1.206       .  T
C1229      C1230   1.206       .  T
C1231      C1232   1.201       .  T
C1233      C1234   1.205       .  T
C1235      C1236   1.203       .  T
C1237      C1238   1.202       .  T
C1239      C1240   1.203       .  T
C1241      C1242   1.207       .  T
C1243      C1244   1.204       .  T
C1245      C1246   1.207       .  T
C1247      C1248   1.200       .  T
C1249      C1250   1.207       .  T
C1251      C1252   1.205       .  T
C1253      C1254   1.201       .  T
C1255      C1256   1.205       .  T
C1257      C1258   1.203       .  T
C1259      C1260   1.205       .  T
C1261      C1262   1.203       .  T
C1263      C1264   1.202       .  T
C1265      C1266   1.203       .  T
C1267      C1268   1.203       .  T
C1269      C1270   1.202       .  T
C1271      C1272   1.205       .  T
C1273      C1274   1.205       .  T
C1275      C1276   1.203       .  T
C1277      C1278   1.203       .  T
O1279     Zr1291   2.440       .  S
O1279      C1281   1.286       .  A
O1280     Zr1317   2.418       .  S
O1280      C1281   1.283       .  A
C1281      C1703   1.432       .  S
O1282     Zr1294   2.440       .  S
O1282      C1284   1.286       .  A
O1283     Zr1318   2.418       .  S
O1283      C1284   1.283       .  A
C1284      C1694   1.431       .  S
O1285     Zr1294   2.441       .  S
O1285      C1287   1.286       .  A
O1286     Zr1317   2.418       .  S
O1286      C1287   1.283       .  A
C1287      C1700   1.432       .  S
O1288     Zr1291   2.441       .  S
O1288      C1290   1.286       .  A
O1289     Zr1318   2.419       .  S
O1289      C1290   1.284       .  A
C1290      C1697   1.432       .  S
Zr1291     O1292   2.433       .  S
Zr1291     O1293   2.436       .  S
Zr1291     O1297   2.373       .  S
Zr1291     O1298   2.371       .  S
Zr1291     O1321   2.372       .  S
Zr1291     O1323   2.373       .  S
O1292      H1335   0.990       .  S
O1293      H1334   0.990       .  S
O1293      H1338   0.990       .  S
Zr1294     O1295   2.435       .  S
Zr1294     O1296   2.434       .  S
Zr1294     O1298   2.371       .  S
Zr1294     O1297   2.369       .  S
Zr1294     O1322   2.371       .  S
Zr1294     O1324   2.374       .  S
O1295      H1336   0.990       .  S
O1295      H1339   0.990       .  S
O1296      H1329   0.990       .  S
O1297     Zr1317   2.377       .  S
O1298     Zr1318   2.382       .  S
O1298      H1325   0.968       .  S
O1299     Zr1311   2.445       .  S
O1299      C1301   1.287       .  A
O1300     Zr1318   2.422       .  S
O1300      C1301   1.284       .  A
C1301      C1692   1.434       .  S
O1302     Zr1314   2.438       .  S
O1302      C1304   1.286       .  A
O1303     Zr1317   2.416       .  S
O1303      C1304   1.283       .  A
C1304      C1695   1.430       .  S
O1305     Zr1314   2.440       .  S
O1305      C1307   1.286       .  A
O1306     Zr1318   2.417       .  S
O1306      C1307   1.283       .  A
C1307      C1689   1.430       .  S
O1308     Zr1311   2.446       .  S
O1308      C1310   1.287       .  A
O1309     Zr1317   2.415       .  S
O1309      C1310   1.283       .  A
C1310      C1701   1.432       .  S
Zr1311     O1312   2.437       .  S
Zr1311     O1313   2.435       .  S
Zr1311     O1319   2.372       .  S
Zr1311     O1320   2.370       .  S
Zr1311     O1323   2.374       .  S
Zr1311     O1321   2.376       .  S
O1312      H1332   0.990       .  S
O1312      H1337   0.990       .  S
O1313      H1333   0.990       .  S
Zr1314     O1315   2.434       .  S
Zr1314     O1316   2.435       .  S
Zr1314     O1320   2.370       .  S
Zr1314     O1319   2.370       .  S
Zr1314     O1324   2.371       .  S
Zr1314     O1322   2.373       .  S
O1315      H1331   0.990       .  S
O1316      H1330   0.990       .  S
O1316      H1340   0.990       .  S
Zr1317     O1320   2.378       .  S
Zr1317     O1322   2.385       .  S
Zr1317     O1323   2.384       .  S
Zr1318     O1319   2.383       .  S
Zr1318     O1321   2.381       .  S
Zr1318     O1324   2.383       .  S
O1319      H1327   0.967       .  S
O1322      H1326   0.966       .  S
O1323      H1328   0.965       .  S
C1341      C1342   1.537       .  S
C1341      C1347   1.537       .  S
C1341      C1345   1.535       .  S
C1341      C1690   1.463       .  S
C1342      H1349   1.086       .  S
C1342      C1343   1.364       .  D
C1343      C1344   1.533       .  S
C1343      C1685   1.441       .  S
C1344      C1348   1.529       .  S
C1344      C1346   1.532       .  S
C1344      H1350   1.112       .  S
C1345      H1351   1.087       .  S
C1345      C1346   1.363       .  D
C1346      C1683   1.437       .  S
C1347      H1352   1.087       .  S
C1347      C1348   1.362       .  D
C1348      C1688   1.434       .  S
C1353      C1354   1.537       .  S
C1353      C1359   1.536       .  S
C1353      C1357   1.538       .  S
C1353      C1691   1.466       .  S
C1354      H1361   1.086       .  S
C1354      C1355   1.364       .  D
C1355      C1356   1.533       .  S
C1355      C1678   1.440       .  S
C1356      C1360   1.529       .  S
C1356      C1358   1.534       .  S
C1356      H1362   1.112       .  S
C1357      H1363   1.086       .  S
C1357      C1358   1.364       .  D
C1358      C1681   1.442       .  S
C1359      H1364   1.087       .  S
C1359      C1360   1.361       .  D
C1360      C1679   1.432       .  S
C1365      C1366   1.538       .  S
C1365      C1371   1.536       .  S
C1365      C1369   1.536       .  S
C1365      C1693   1.463       .  S
C1366      H1373   1.086       .  S
C1366      C1367   1.364       .  D
C1367      C1368   1.534       .  S
C1367      C1676   1.443       .  S
C1368      C1372   1.530       .  S
C1368      C1370   1.534       .  S
C1368      H1374   1.112       .  S
C1369      H1375   1.087       .  S
C1369      C1370   1.363       .  D
C1370      C1671   1.438       .  S
C1371      H1376   1.087       .  S
C1371      C1372   1.361       .  D
C1372      C1673   1.433       .  S
C1377      C1378   1.536       .  S
C1377      C1383   1.537       .  S
C1377      C1381   1.537       .  S
C1377      C1698   1.465       .  S
C1378      H1385   1.087       .  S
C1378      C1379   1.363       .  D
C1379      C1380   1.535       .  S
C1379      C1670   1.440       .  S
C1380      C1384   1.531       .  S
C1380      C1382   1.534       .  S
C1380      H1386   1.112       .  S
C1381      H1387   1.086       .  S
C1381      C1382   1.364       .  D
C1382      C1667   1.442       .  S
C1383      H1388   1.087       .  S
C1383      C1384   1.362       .  D
C1384      C1665   1.436       .  S
N1389      C1394   1.351       .  A
N1389      H1421   1.039       .  S
N1390      C1398   1.349       .  A
N1391      C1396   1.350       .  A
N1391      H1422   1.039       .  S
N1392      C1400   1.347       .  A
C1393      C1401   1.387       .  A
C1393      C1409   1.410       .  A
C1394      C1410   1.409       .  A
C1394      C1402   1.387       .  A
C1395      C1403   1.387       .  A
C1395      C1412   1.409       .  A
C1396      C1411   1.409       .  A
C1396      C1404   1.388       .  A
C1397      C1409   1.408       .  A
C1397      C1405   1.388       .  A
C1398      C1412   1.408       .  A
C1398      C1406   1.387       .  A
C1399      C1407   1.387       .  A
C1399      C1410   1.407       .  A
C1400      C1408   1.388       .  A
C1400      C1411   1.407       .  A
C1401      H1413   1.082       .  S
C1402      H1414   1.082       .  S
C1403      H1415   1.082       .  S
C1404      H1416   1.082       .  S
C1405      H1417   1.083       .  S
C1406      H1418   1.082       .  S
C1407      H1419   1.082       .  S
C1408      H1420   1.082       .  S
C1409      C1674   1.442       .  S
C1410      C1687   1.443       .  S
C1411      C1680   1.440       .  S
C1412      C1666   1.445       .  S
C1423      C1424   1.538       .  S
C1423      C1429   1.537       .  S
C1423      C1427   1.537       .  S
C1423      C1696   1.463       .  S
C1424      H1431   1.086       .  S
C1424      C1425   1.364       .  D
C1425      C1426   1.530       .  S
C1425      C1661   1.438       .  S
C1426      C1430   1.527       .  S
C1426      C1428   1.532       .  S
C1426      H1432   1.112       .  S
C1427      H1433   1.086       .  S
C1427      C1428   1.364       .  D
C1428      C1659   1.440       .  S
C1429      H1434   1.087       .  S
C1429      C1430   1.362       .  D
C1430      C1664   1.431       .  S
C1435      C1436   1.537       .  S
C1435      C1441   1.538       .  S
C1435      C1439   1.537       .  S
C1435      C1699   1.465       .  S
C1436      H1443   1.087       .  S
C1436      C1437   1.362       .  D
C1437      C1438   1.528       .  S
C1437      C1658   1.433       .  S
C1438      C1442   1.530       .  S
C1438      C1440   1.533       .  S
C1438      H1444   1.112       .  S
C1439      H1445   1.086       .  S
C1439      C1440   1.364       .  D
C1440      C1654   1.439       .  S
C1441      H1446   1.086       .  S
C1441      C1442   1.364       .  D
C1442      C1655   1.439       .  S
N1447      C1452   1.352   1_554  A
N1447      C1451   1.352       .  A
N1447      H1479   1.038       .  S
N1448      C1455   1.351       .  A
N1449      C1454   1.352   1_554  A
N1449      C1453   1.352       .  A
N1449      H1480   1.035       .  S
N1450      C1457   1.352       .  A
C1451      C1459   1.387       .  A
C1451      C1467   1.412       .  A
C1452      C1468   1.412       .  A
C1452      C1460   1.387       .  A
C1453      C1461   1.388       .  A
C1453      C1470   1.413       .  A
C1454      C1469   1.412       .  A
C1454      C1462   1.388       .  A
C1455      C1467   1.412       .  A
C1455      C1463   1.387       .  A
C1456      C1470   1.413       .  A
C1456      C1464   1.387       .  A
C1457      C1465   1.387       .  A
C1457      C1468   1.413       .  A
C1458      C1466   1.387       .  A
C1458      C1469   1.413       .  A
C1459      C1460   1.376   1_554  A
C1459      H1471   1.082       .  S
C1460      H1472   1.082       .  S
C1461      C1462   1.375   1_554  A
C1461      H1473   1.082       .  S
C1462      H1474   1.083       .  S
C1463      H1475   1.083       .  S
C1464      H1476   1.083       .  S
C1465      H1477   1.082       .  S
C1466      H1478   1.083       .  S
C1467      C1660   1.450       .  S
C1468      C1686   1.449       .  S
C1469      C1672   1.447       .  S
C1470      C1653   1.448       .  S
C1481      C1482   1.539       .  S
C1481      C1487   1.536       .  S
C1481      C1485   1.537       .  S
C1481      C1704   1.465       .  S
C1482      H1489   1.086       .  S
C1482      C1483   1.365       .  D
C1483      C1484   1.531       .  S
C1483      C1649   1.440       .  S
C1484      C1488   1.529       .  S
C1484      C1486   1.534       .  S
C1484      H1490   1.112       .  S
C1485      H1491   1.086       .  S
C1485      C1486   1.365       .  D
C1486      C1647   1.441       .  S
C1487      H1492   1.087       .  S
C1487      C1488   1.361       .  D
C1488      C1651   1.433       .  S
N1493      C1497   1.351       .  A
N1493      H1525   1.039       .  S
N1494      C1501   1.349       .  A
N1495      C1499   1.353       .  A
N1495      H1526   1.037       .  S
N1496      C1503   1.349       .  A
C1497      C1505   1.388       .  A
C1497      C1513   1.410       .  A
C1498      C1514   1.410       .  A
C1498      C1506   1.388       .  A
C1499      C1507   1.388       .  A
C1499      C1516   1.413       .  A
C1500      C1515   1.413       .  A
C1500      C1508   1.388       .  A
C1501      C1513   1.407       .  A
C1501      C1509   1.387       .  A
C1502      C1516   1.409       .  A
C1502      C1510   1.387       .  A
C1503      C1511   1.387       .  A
C1503      C1514   1.407       .  A
C1504      C1512   1.387       .  A
C1504      C1515   1.410       .  A
C1505      H1517   1.082       .  S
C1506      H1518   1.082       .  S
C1507      H1519   1.082       .  S
C1508      H1520   1.082       .  S
C1509      H1521   1.082       .  S
C1510      H1522   1.082       .  S
C1511      H1523   1.082       .  S
C1512      H1524   1.082       .  S
C1513      C1645   1.441       .  S
C1514      C1663   1.442       .  S
C1515      C1657   1.444       .  S
C1516      C1652   1.444       .  S
N1527      C1532   1.352       .  A
N1527      C1531   1.353   1_554  A
N1527      H1559   1.038       .  S
N1528      C1536   1.351       .  A
N1529      C1534   1.352       .  A
N1529      C1533   1.352   1_554  A
N1529      H1560   1.039       .  S
N1530      C1538   1.350       .  A
C1531      C1539   1.387       .  A
C1531      C1547   1.413       .  A
C1532      C1548   1.412       .  A
C1532      C1540   1.387       .  A
C1533      C1541   1.387       .  A
C1533      C1550   1.411       .  A
C1534      C1549   1.411       .  A
C1534      C1542   1.387       .  A
C1535      C1547   1.413       .  A
C1535      C1543   1.387       .  A
C1536      C1550   1.412       .  A
C1536      C1544   1.387       .  A
C1537      C1545   1.388       .  A
C1537      C1548   1.412       .  A
C1538      C1546   1.387       .  A
C1538      C1549   1.412       .  A
C1539      C1540   1.376   1_556  A
C1539      H1551   1.082       .  S
C1540      H1552   1.082       .  S
C1541      C1542   1.377   1_556  A
C1541      H1553   1.082       .  S
C1542      H1554   1.082       .  S
C1543      H1555   1.082       .  S
C1544      H1556   1.082       .  S
C1545      H1557   1.082       .  S
C1546      H1558   1.082       .  S
C1547      C1675   1.452       .  S
C1548      C1656   1.449       .  S
C1549      C1650   1.449       .  S
C1550      C1668   1.450       .  S
N1561      C1566   1.352   1_554  A
N1561      C1565   1.352       .  A
N1561      H1593   1.038       .  S
N1562      C1569   1.351       .  A
N1563      C1568   1.351   1_554  A
N1563      C1567   1.352       .  A
N1563      H1594   1.038       .  S
N1564      C1571   1.353       .  A
C1565      C1573   1.387       .  A
C1565      C1581   1.412       .  A
C1566      C1582   1.411       .  A
C1566      C1574   1.387       .  A
C1567      C1575   1.387       .  A
C1567      C1584   1.412       .  A
C1568      C1583   1.410       .  A
C1568      C1576   1.387       .  A
C1569      C1581   1.412       .  A
C1569      C1577   1.387       .  A
C1570      C1584   1.411       .  A
C1570      C1578   1.387       .  A
C1571      C1579   1.386       .  A
C1571      C1582   1.413       .  A
C1572      C1580   1.387       .  A
C1572      C1583   1.412       .  A
C1573      C1574   1.377   1_554  A
C1573      H1585   1.082       .  S
C1574      H1586   1.082       .  S
C1575      C1576   1.377   1_554  A
C1575      H1587   1.082       .  S
C1576      H1588   1.082       .  S
C1577      H1589   1.083       .  S
C1578      H1590   1.083       .  S
C1579      H1591   1.082       .  S
C1580      H1592   1.082       .  S
C1581      C1644   1.449       .  S
C1582      C1682   1.450       .  S
C1583      C1669   1.448       .  S
C1584      C1648   1.449       .  S
C1595      C1596   1.538       .  S
C1595      C1601   1.535       .  S
C1595      C1599   1.538       .  S
C1595      C1702   1.464       .  S
C1596      H1603   1.086       .  S
C1596      C1597   1.365       .  D
C1597      C1598   1.533       .  S
C1597      C1643   1.440       .  S
C1598      C1602   1.528       .  S
C1598      C1600   1.531       .  S
C1598      H1604   1.113       .  S
C1599      H1605   1.086       .  S
C1599      C1600   1.364       .  D
C1600      C1642   1.438       .  S
C1601      H1606   1.087       .  S
C1601      C1602   1.360       .  D
C1602      C1646   1.431       .  S
N1607      C1612   1.351       .  A
N1607      C1611   1.351   1_554  A
N1607      H1639   1.039       .  S
N1608      C1616   1.350       .  A
N1609      C1614   1.352       .  A
N1609      C1613   1.351   1_554  A
N1609      H1640   1.037       .  S
N1610      C1618   1.351       .  A
C1611      C1619   1.387       .  A
C1611      C1627   1.410       .  A
C1612      C1628   1.410       .  A
C1612      C1620   1.387       .  A
C1613      C1621   1.388       .  A
C1613      C1630   1.411       .  A
C1614      C1629   1.412       .  A
C1614      C1622   1.388       .  A
C1615      C1627   1.411       .  A
C1615      C1623   1.387       .  A
C1616      C1630   1.412       .  A
C1616      C1624   1.387       .  A
C1617      C1625   1.387       .  A
C1617      C1628   1.410       .  A
C1618      C1626   1.387       .  A
C1618      C1629   1.412       .  A
C1619      C1620   1.376   1_556  A
C1619      H1631   1.082       .  S
C1620      H1632   1.082       .  S
C1621      C1622   1.376   1_556  A
C1621      H1633   1.082       .  S
C1622      H1634   1.082       .  S
C1623      H1635   1.082       .  S
C1624      H1636   1.082       .  S
C1625      H1637   1.082       .  S
C1626      H1638   1.082       .  S
C1627      C1677   1.448       .  S
C1628      C1641   1.447       .  S
C1629      C1662   1.448       .  S
C1630      C1684   1.446       .  S
C1641      C1642   1.204       .  T
C1643      C1644   1.205       .  T
C1645      C1646   1.200       .  T
C1647      C1648   1.206       .  T
C1649      C1650   1.206       .  T
C1651      C1652   1.202       .  T
C1653      C1654   1.205       .  T
C1655      C1656   1.205       .  T
C1657      C1658   1.202       .  T
C1659      C1660   1.206       .  T
C1661      C1662   1.205       .  T
C1663      C1664   1.200       .  T
C1665      C1666   1.203       .  T
C1667      C1668   1.207       .  T
C1669      C1670   1.205       .  T
C1671      C1672   1.204       .  T
C1673      C1674   1.201       .  T
C1675      C1676   1.207       .  T
C1677      C1678   1.205       .  T
C1679      C1680   1.201       .  T
C1681      C1682   1.207       .  T
C1683      C1684   1.204       .  T
C1685      C1686   1.206       .  T
C1687      C1688   1.202       .  T
C1689      C1690   1.203       .  T
C1691      C1692   1.205       .  T
C1693      C1694   1.204       .  T
C1695      C1696   1.203       .  T
C1697      C1698   1.204       .  T
C1699      C1700   1.204       .  T
C1701      C1702   1.204       .  T
C1703      C1704   1.204       .  T
