geometry optimzed in LAMMPS
_audit_creation_date              2020-12-01 
_audit_creation_method            'lammps2cif' 
_symmetry_space_group_name_H-M    'P1' 
_symmetry_Int_Tables_number       1 
_symmetry_cell_setting            triclinic 
loop_ 
_symmetry_equiv_pos_as_xyz 
  x,y,z 
_cell_length_a                    39.21326668 
_cell_length_b                    39.18554960706837 
_cell_length_c                    39.8387388062148 
_cell_angle_alpha                 89.86683889499116 
_cell_angle_beta                  89.48736667944748 
_cell_angle_gamma                 90.20240883952812 
loop_ 
_atom_site_label 
_atom_site_type_symbol 
_atom_site_fract_x 
_atom_site_fract_y 
_atom_site_fract_z 
_atom_site_charge 
C1          C  0.35619581  0.61420983  0.66384336     0.85800
C2          C  0.38010490  0.63994270  0.68016465    -0.54500
C3          C  0.39695321  0.66157553  0.65846254     0.08700
C4          C  0.38899293  0.65364658  0.62115583     0.19700
C5          C  0.33315443  0.63504794  0.64050984    -0.55200
C6          C  0.34980825  0.65645986  0.61867933     0.08800
C7          C  0.37900796  0.59477770  0.63900273    -0.54700
C8          C  0.39642941  0.61516497  0.61678733     0.09400
H9          H  0.38283419  0.64085886  0.70722575     0.13900
H10         H  0.40208561  0.66943353  0.60206809    -0.00400
H11         H  0.30575316  0.63214573  0.64041455     0.14200
H12         H  0.38036500  0.56711230  0.63815258     0.14000
N13         N  0.45422223  0.46182022  0.55195490    -0.06800
N14         N  0.44596300  0.43619514  0.57200062    -0.59000
N15         N  0.43077419  0.48520554  0.47466138    -0.06500
N16         N  0.40803220  0.47850273  0.45140615    -0.61100
N17         N  0.45425644  0.46141953  0.47523469    -0.06100
N18         N  0.44800650  0.43795893  0.45238627    -0.58900
N19         N  0.42981668  0.48475566  0.55154560    -0.05800
N20         N  0.40436063  0.47483322  0.57129372    -0.61400
C21         C  0.41520189  0.44495768  0.58461122     0.95300
C22         C  0.41952782  0.44937035  0.43718633     0.95100
N23         N  0.45272374  0.59038529  0.47265718    -0.07000
N24         N  0.44527922  0.61240096  0.44848278    -0.59500
N25         N  0.42987042  0.56586046  0.55048948    -0.05100
N26         N  0.40705404  0.57024954  0.57450206    -0.60800
N27         N  0.45201329  0.59122729  0.54992551    -0.07000
N28         N  0.44415717  0.61377010  0.57355396    -0.59800
N29         N  0.43023112  0.56533641  0.47340162    -0.04800
N30         N  0.40755824  0.56942735  0.44955327    -0.60900
Mn31       Mn  0.42945497  0.52542867  0.51262190     1.18400
C32         C  0.41716649  0.59868280  0.43412370     0.97400
C33         C  0.41613243  0.60006396  0.58874486     0.98100
N34         N  0.53329258  0.46192482  0.47419726    -0.07100
N35         N  0.53753002  0.43903798  0.45040753    -0.63400
N36         N  0.55855691  0.48592273  0.55025626    -0.05900
N37         N  0.58378761  0.47721432  0.57030816    -0.64000
N38         N  0.53446788  0.46254383  0.55122561    -0.06600
N39         N  0.54279228  0.43772484  0.57199801    -0.63600
N40         N  0.55733733  0.48531670  0.47270991    -0.05500
N41         N  0.57872552  0.47856879  0.44768376    -0.64300
Mn42       Mn  0.49413403  0.46145764  0.51338601     1.10700
C43         C  0.56546760  0.44996597  0.43352693     0.98600
C44         C  0.57320341  0.44752099  0.58451608     0.98700
N45         N  0.53357703  0.59101158  0.54946545    -0.06600
N46         N  0.53917985  0.61267170  0.57425618    -0.62000
N47         N  0.55734623  0.56607787  0.47247739    -0.05900
N48         N  0.57971049  0.56994287  0.44790736    -0.58700
N49         N  0.53473289  0.59088163  0.47209275    -0.07200
N50         N  0.54181851  0.61247089  0.44722950    -0.61500
N51         N  0.55646222  0.56644121  0.54969257    -0.06200
N52         N  0.57761925  0.57055501  0.57485663    -0.58700
Mn53       Mn  0.49334272  0.59236037  0.51096664     1.20200
Mn54       Mn  0.55842974  0.52612952  0.51126299     1.10100
Cl55       Cl  0.49386466  0.52659470  0.51216005    -0.86700
C56         C  0.56650752  0.59927401  0.59000061     0.95700
C57         C  0.56991591  0.59883212  0.43234397     0.95500
C58         C  0.63742434  0.37550054  0.59233545     0.85800
C59         C  0.65876281  0.39385946  0.61926429    -0.54500
C60         C  0.64010629  0.41378764  0.64056085     0.08700
C61         C  0.60149265  0.41200429  0.63481494     0.19700
C62         C  0.61165664  0.35490525  0.61354862    -0.55200
C63         C  0.59312240  0.37331355  0.63648178     0.08800
C64         C  0.61617527  0.40323139  0.57577337    -0.54700
C65         C  0.59728913  0.42221609  0.59759384     0.09400
H66         H  0.68583376  0.39038263  0.62292959     0.13900
H67         H  0.58721020  0.42826361  0.65269172    -0.00400
H68         H  0.60926862  0.32745337  0.61117905     0.14200
H69         H  0.61531157  0.40689037  0.54873789     0.14000
C70         C  0.39836035  0.42788090  0.41442520     0.85800
C71         C  0.37632656  0.40224711  0.43404470    -0.54500
C72         C  0.35661274  0.38220499  0.41414867     0.08700
C73         C  0.36025498  0.38991498  0.37645787     0.19700
C74         C  0.41871930  0.40634145  0.38919378    -0.55200
C75         C  0.39868961  0.38649714  0.36907880     0.08800
C76         C  0.37330565  0.44827814  0.39304152    -0.54700
C77         C  0.35307678  0.42839479  0.37337265     0.09400
H78         H  0.37608885  0.40025780  0.46126190     0.13900
H79         H  0.34382689  0.37373269  0.36036509    -0.00400
H80         H  0.44639853  0.40606851  0.38797646     0.14200
H81         H  0.37202159  0.47596903  0.39294216     0.14000
C82         C  0.62526693  0.60876394  0.35304619     0.85800
C83         C  0.64869036  0.63378459  0.37125800    -0.54500
C84         C  0.63275982  0.65522483  0.39328585     0.08700
C85         C  0.59365274  0.65068174  0.39418731     0.19700
C86         C  0.60464670  0.59078125  0.38081184    -0.55200
C87         C  0.58822136  0.61240316  0.40250717     0.08800
C88         C  0.59808797  0.63107871  0.33651879    -0.54700
C89         C  0.58259821  0.65451321  0.35709102     0.09400
H90         H  0.67618244  0.63372190  0.36758091     0.13900
H91         H  0.58108966  0.66791196  0.41237123    -0.00400
H92         H  0.60293924  0.56321289  0.38310683     0.14200
H93         H  0.59043848  0.62806564  0.31068106     0.14000
C94         C  0.35159726  0.61467126  0.36520731     0.85800
C95         C  0.37577830  0.59454378  0.38788132    -0.54500
C96         C  0.39696541  0.61421349  0.40691972     0.08700
C97         C  0.39191676  0.65295237  0.40178951     0.19700
C98         C  0.33277696  0.63857264  0.38996079    -0.55200
C99         C  0.35370824  0.65801870  0.40946952     0.08800
C100        C  0.37432644  0.63892375  0.34485171    -0.54700
C101        C  0.39544983  0.65875879  0.36350971     0.09400
H102        H  0.37503987  0.56688073  0.38977299     0.13900
H103        H  0.40895393  0.66913100  0.41724651    -0.00400
H104        H  0.30549757  0.64028910  0.39327539     0.14200
H105        H  0.37336043  0.64073419  0.31764854     0.14000
C106        C  0.58328129  0.42812327  0.40786626     0.85800
C107        C  0.60551371  0.44743152  0.38235052    -0.54500
C108        C  0.62204035  0.42659013  0.36014326     0.08700
C109        C  0.61441780  0.38818929  0.36529416     0.19700
C110        C  0.55895373  0.40630319  0.38657419    -0.55200
C111        C  0.57512483  0.38546328  0.36408884     0.08800
C112        C  0.60715393  0.40241282  0.42437300    -0.54700
C113        C  0.62332785  0.38121472  0.40236877     0.09400
H114        H  0.60809687  0.47504396  0.38185538     0.13900
H115        H  0.62786121  0.37127096  0.34721980    -0.00400
H116        H  0.53137865  0.40681906  0.38939147     0.14200
H117        H  0.61081332  0.40091034  0.45135025     0.14000
C118        C  0.34813846  0.37495572  0.59678568     0.85800
C119        C  0.37243368  0.35322380  0.61830426    -0.54500
C120        C  0.39382466  0.37170810  0.63838144     0.08700
C121        C  0.38788552  0.41061595  0.63614637     0.19700
C122        C  0.32899264  0.39634928  0.62324959    -0.55200
C123        C  0.34956040  0.41517606  0.64328045     0.08800
C124        C  0.37114340  0.40057030  0.57821419    -0.54700
C125        C  0.39171225  0.41925753  0.59862752     0.09400
H126        H  0.37212877  0.32551815  0.61832685     0.13900
H127        H  0.40460799  0.42600545  0.65267031    -0.00400
H128        H  0.30169662  0.39592556  0.62763847     0.14200
H129        H  0.37105056  0.40377297  0.55111018     0.14000
C130        C  0.62911412  0.61795124  0.66031675     0.85800
C131        C  0.64955095  0.63761059  0.63330758    -0.54500
C132        C  0.63075411  0.65691037  0.61121734     0.08700
C133        C  0.59199018  0.65408879  0.61913639     0.19700
C134        C  0.60727233  0.64478298  0.67775754    -0.55200
C135        C  0.58773265  0.66367223  0.65664839     0.08800
C136        C  0.60428295  0.59678843  0.63911070    -0.54700
C137        C  0.58497422  0.61553652  0.61766245     0.09400
H138        H  0.67671746  0.63469263  0.63083825     0.13900
H139        H  0.57472516  0.66798051  0.60235325    -0.00400
H140        H  0.60736460  0.64864178  0.70475538     0.14200
H141        H  0.60384088  0.56906261  0.63914591     0.14000
C142        C  0.25547518  0.22541566  0.98785102     0.01600
C143        C  0.25210035  0.22279532  0.02321331     0.01500
C144        C  0.22740453  0.24338516  0.03931444    -0.19000
C145        C  0.20875839  0.26842750  0.02193584     0.01600
C146        C  0.21292200  0.27155331  0.98662667     0.01500
C147        C  0.23644844  0.24991434  0.97045428    -0.19000
H148        H  0.23994963  0.25199994  0.94348229     0.03600
H149        H  0.22377839  0.24115129  0.06623645     0.03600
C150        C  0.20924309  0.01000517  0.26509901     0.01600
C151        C  0.21163441  0.97388653  0.26509333     0.01500
C152        C  0.23350633  0.95790737  0.24190700    -0.19000
C153        C  0.25530962  0.97705578  0.22073975     0.01600
C154        C  0.25253396  0.01306339  0.22034927     0.01500
C155        C  0.22799782  0.02868483  0.24087298    -0.19000
H156        H  0.22573763  0.05624947  0.24011132     0.03600
H157        H  0.23467634  0.93028028  0.24144145     0.03600
C158        C  0.01563973  0.21821082  0.26098044     0.01600
C159        C  0.97986555  0.21687223  0.26432799     0.01500
C160        C  0.95975081  0.24039274  0.24679194    -0.19000
C161        C  0.97448298  0.26613031  0.22677813     0.01600
C162        C  0.01055570  0.26680139  0.22247125     0.01500
C163        C  0.03025920  0.24146448  0.23833978    -0.19000
H164        H  0.05771939  0.24139232  0.23500033     0.03600
H165        H  0.93227881  0.23970828  0.25015479     0.03600
C166        C  0.46521894  0.28513118  0.28609392     0.01600
C167        C  0.50138589  0.28524169  0.28523223     0.01500
C168        C  0.51852199  0.26236326  0.26394979    -0.19000
C169        C  0.50069948  0.23804803  0.24483564     0.01600
C170        C  0.46453671  0.23721149  0.24633456     0.01500
C171        C  0.44744948  0.26133352  0.26644515    -0.19000
H172        H  0.41982625  0.26173018  0.26671183     0.03600
H173        H  0.54613397  0.26321264  0.26255891     0.03600
C174        C  0.26137423  0.29026410  0.47757870     0.01600
C175        C  0.25958050  0.29159931  0.51292930     0.01500
C176        C  0.23778734  0.26927228  0.53035098    -0.19000
C177        C  0.21803656  0.24537481  0.51307721     0.01600
C178        C  0.21956987  0.24423076  0.47764048     0.01500
C179        C  0.24152734  0.26653244  0.46027838    -0.19000
H180        H  0.24304351  0.26556219  0.43310365     0.03600
H181        H  0.23673294  0.27002833  0.55755155     0.03600
C182        C  0.26887203  0.49564211  0.27546899     0.01600
C183        C  0.27009065  0.53163751  0.27378183     0.01500
C184        C  0.25093768  0.54893031  0.24962462    -0.19000
C185        C  0.22970095  0.53116919  0.22758344     0.01600
C186        C  0.22756675  0.49513367  0.22994460     0.01500
C187        C  0.24726295  0.47783977  0.25380248    -0.19000
H188        H  0.24551697  0.45027791  0.25571185     0.03600
H189        H  0.25208634  0.57656657  0.24842525     0.03600
C190        C  0.26539134  0.76030858  0.98010006     0.01600
C191        C  0.26490142  0.76221257  0.01528053     0.01500
C192        C  0.24157403  0.74268440  0.03376537    -0.19000
C193        C  0.21778918  0.72140036  0.01797790     0.01600
C194        C  0.21881151  0.71813628  0.98230277     0.01500
C195        C  0.24401403  0.73674882  0.96422851    -0.19000
H196        H  0.24614004  0.73413632  0.93723999     0.03600
H197        H  0.24115435  0.74509103  0.06089349     0.03600
C198        C  0.76600907  0.26848419  0.03064981     0.01600
C199        C  0.76385048  0.27375210  0.99566607     0.01500
C200        C  0.73867924  0.25641552  0.97740486    -0.19000
C201        C  0.71456881  0.23501106  0.99333792     0.01600
C202        C  0.71625674  0.23012607  0.02871244     0.01500
C203        C  0.74296647  0.24602903  0.04637308    -0.19000
H204        H  0.74533811  0.24169404  0.07313364     0.03600
H205        H  0.73779574  0.25968482  0.95038693     0.03600
C206        C  0.99786729  0.25614665  0.77754162     0.01600
C207        C  0.96189396  0.25563710  0.78036494     0.01500
C208        C  0.94335960  0.23440675  0.75863228    -0.19000
C209        C  0.95964567  0.21608670  0.73252383     0.01600
C210        C  0.99584855  0.21638594  0.73086902     0.01500
C211        C  0.01426562  0.23590037  0.75372829    -0.19000
H212        H  0.04189670  0.23669147  0.75187328     0.03600
H213        H  0.91581865  0.23384118  0.76074281     0.03600
C214        C  0.70905528  0.49107272  0.26112998     0.01600
C215        C  0.71180220  0.52713526  0.26225282     0.01500
C216        C  0.73703244  0.54339309  0.24262581    -0.19000
C217        C  0.75911245  0.52471248  0.22174921     0.01600
C218        C  0.75628467  0.48863573  0.22067593     0.01500
C219        C  0.73141927  0.47238694  0.24056819    -0.19000
H220        H  0.72965555  0.44476107  0.24030095     0.03600
H221        H  0.73974445  0.57090706  0.24381070     0.03600
C222        C  0.27840777  0.48667194  0.74825680     0.01600
C223        C  0.28169064  0.52201010  0.75569822     0.01500
C224        C  0.26012811  0.53587066  0.78051103    -0.19000
C225        C  0.23401485  0.51658205  0.79558051     0.01600
C226        C  0.23056805  0.48163786  0.78784284     0.01500
C227        C  0.25326905  0.46700098  0.76482598    -0.19000
H228        H  0.25034695  0.44021181  0.75865949     0.03600
H229        H  0.26191008  0.56282346  0.78640052     0.03600
C230        C  0.89399172  0.59876137  0.90934301     0.85800
C231        C  0.87229969  0.62077561  0.93284334    -0.54500
C232        C  0.85026027  0.64210330  0.91681215     0.08700
C233        C  0.85344372  0.64033920  0.87786453     0.19700
C234        C  0.86874683  0.58068516  0.88648026    -0.55200
C235        C  0.84729238  0.60205524  0.86994970     0.08800
C236        C  0.91282538  0.62422563  0.88656951    -0.54700
C237        C  0.89200344  0.64645070  0.87008569     0.09400
H238        H  0.87392904  0.61921029  0.96001233     0.13900
H239        H  0.83629994  0.65796048  0.86423269    -0.00400
H240        H  0.86782672  0.55312799  0.88353365     0.14200
H241        H  0.94035751  0.62431452  0.88326952     0.14000
N242        N  0.95517214  0.55915394  0.96081070    -0.06800
N243        N  0.94721158  0.58416462  0.94019518    -0.59000
N244        N  0.93338156  0.53712226  0.03870804    -0.06500
N245        N  0.91048969  0.54523018  0.06181142    -0.61100
N246        N  0.95724857  0.56063430  0.03703002    -0.06100
N247        N  0.95115873  0.58528692  0.05875193    -0.58900
N248        N  0.93087612  0.53599759  0.96193715    -0.05800
N249        N  0.90564001  0.54504353  0.94208896    -0.61400
C250        C  0.91665724  0.57469121  0.92798452     0.95300
C251        C  0.92231483  0.57498643  0.07461201     0.95100
N252        N  0.95703353  0.43267308  0.04071842    -0.07000
N253        N  0.95009262  0.41041238  0.06482880    -0.59500
N254        N  0.93091184  0.45444844  0.96386375    -0.05100
N255        N  0.90665540  0.44840788  0.94198654    -0.60800
N256        N  0.95329466  0.42942426  0.96381732    -0.07000
N257        N  0.94414895  0.40553973  0.94200920    -0.59800
N258        N  0.93396437  0.45699651  0.04056200    -0.04800
N259        N  0.91123223  0.45196628  0.06457968    -0.60900
Mn260      Mn  0.93155550  0.49590545  0.00113451     1.18400
C261        C  0.92191992  0.42332176  0.08006665     0.97400
C262        C  0.91508949  0.41800516  0.92840238     0.98100
N263        N  0.03596520  0.55879074  0.03455706    -0.07100
N264        N  0.03995916  0.58064313  0.05923487    -0.63400
N265        N  0.05897331  0.53517220  0.95689290    -0.05900
N266        N  0.08086836  0.54286680  0.93252267    -0.64000
N267        N  0.03410929  0.55757295  0.95776118    -0.06600
N268        N  0.03790045  0.58034751  0.93383106    -0.63600
N269        N  0.06044390  0.53600677  0.03434174    -0.05500
N270        N  0.08181472  0.54209985  0.05912021    -0.64300
Mn271      Mn  0.99592680  0.55951448  0.99743190     1.10700
C272        C  0.06813624  0.56956730  0.07493702     0.98600
C273        C  0.06686591  0.57085079  0.91820266     0.98700
N274        N  0.03522032  0.43008983  0.96026179    -0.06600
N275        N  0.04016101  0.40626996  0.93750770    -0.62000
N276        N  0.06185414  0.45637235  0.03487885    -0.05900
N277        N  0.08563602  0.45243828  0.05760788    -0.58700
N278        N  0.03885753  0.43188982  0.03706215    -0.07200
N279        N  0.04709477  0.41031673  0.06133603    -0.61500
N280        N  0.05971603  0.45321625  0.95854397    -0.06200
N281        N  0.08215991  0.44505020  0.93479385    -0.58700
Mn282      Mn  0.99608983  0.42979643  0.00051618     1.20200
Mn283      Mn  0.06146742  0.49527894  0.99585500     1.10100
Cl284      Cl  0.99624671  0.49491083  0.99845517    -0.86700
C285        C  0.06935122  0.41580874  0.92178353     0.95700
C286        C  0.07627120  0.42373601  0.07392455     0.95500
C287        C  0.89915722  0.40333399  0.10325396     0.85800
C288        C  0.87601606  0.37898972  0.08394449    -0.54500
C289        C  0.85409318  0.36057315  0.10361594     0.08700
C290        C  0.85774508  0.36822043  0.14166829     0.19700
C291        C  0.87499415  0.42551604  0.12412093    -0.55200
C292        C  0.85325655  0.40755370  0.14438131     0.08800
C293        C  0.91753919  0.38095777  0.12874122    -0.54700
C294        C  0.89620369  0.36201701  0.14879439     0.09400
H295        H  0.87694259  0.37644667  0.05678605     0.13900
H296        H  0.84008890  0.35328718  0.15800424    -0.00400
H297        H  0.87481014  0.45322131  0.12284602     0.14200
H298        H  0.94512406  0.37953928  0.13028100     0.14000
C299        C  0.08184640  0.35191969  0.85130900     0.85800
C300        C  0.06365146  0.37756410  0.87362573    -0.54500
C301        C  0.08449791  0.39552824  0.89424647     0.08700
C302        C  0.12284110  0.38682386  0.88987950     0.19700
C303        C  0.10969889  0.37211233  0.83219915    -0.55200
C304        C  0.13053703  0.39155895  0.85195953     0.08800
C305        C  0.10236392  0.33017105  0.87577879    -0.54700
C306        C  0.12504905  0.34740475  0.89515393     0.09400
H307        H  0.03603062  0.37982793  0.87445595     0.13900
H308        H  0.13909869  0.40248193  0.90637831    -0.00400
H309        H  0.11440506  0.36983981  0.80553877     0.14200
H310        H  0.09843821  0.30295224  0.87795426     0.14000
C311        C  0.08293751  0.64111129  0.85452809     0.85800
C312        C  0.09954369  0.65967631  0.88390607    -0.54500
C313        C  0.12139505  0.64033737  0.90258167     0.08700
C314        C  0.12084031  0.60224308  0.89246220     0.19700
C315        C  0.11188242  0.62314563  0.83574807    -0.55200
C316        C  0.13082480  0.60180186  0.85516497     0.08800
C317        C  0.06311909  0.61256077  0.87251048    -0.54700
C318        C  0.08280113  0.59243947  0.89255017     0.09400
H319        H  0.09483903  0.68632561  0.88942970     0.13900
H320        H  0.13677184  0.58528411  0.90806380    -0.00400
H321        H  0.11622651  0.62634048  0.80896768     0.14200
H322        H  0.03550704  0.61032619  0.87203681     0.14000
C323        C  0.84719773  0.40001533  0.86213028     0.85800
C324        C  0.87320638  0.42019438  0.88266939    -0.54500
C325        C  0.89330286  0.40098693  0.90307391     0.08700
C326        C  0.88639093  0.36215143  0.90034084     0.19700
C327        C  0.86902410  0.37396636  0.84277637    -0.55200
C328        C  0.88942704  0.35428334  0.86225154     0.08800
C329        C  0.82776734  0.37797239  0.88788980    -0.54700
C330        C  0.84769242  0.35835972  0.90848887     0.09400
H331        H  0.87470101  0.44788474  0.88200706     0.13900
H332        H  0.90348001  0.34696028  0.91648271    -0.00400
H333        H  0.86924474  0.37025442  0.81592335     0.14200
H334        H  0.80010990  0.37812312  0.88968208     0.14000
C335        C  0.90186964  0.59754991  0.09750060     0.85800
C336        C  0.92298208  0.61878000  0.12208783    -0.54500
C337        C  0.90397365  0.63986443  0.14217447     0.08700
C338        C  0.86503337  0.63676291  0.13610029     0.19700
C339        C  0.87643822  0.57795762  0.11950985    -0.55200
C340        C  0.85681255  0.59819057  0.13943561     0.08800
C341        C  0.88042460  0.62354331  0.07820405    -0.54700
C342        C  0.86120587  0.64445961  0.09818708     0.09400
H343        H  0.95058048  0.61721502  0.12352113     0.13900
H344        H  0.84920307  0.65328239  0.15258734    -0.00400
H345        H  0.87361626  0.55036387  0.11905753     0.14200
H346        H  0.87976709  0.62458404  0.05096496     0.14000
C347        C  0.70721798  0.52690252  0.74779100     0.01600
C348        C  0.70883925  0.49091664  0.74393570     0.01500
C349        C  0.73238282  0.47244603  0.76322256    -0.19000
C350        C  0.75578946  0.48878502  0.78451056     0.01600
C351        C  0.75410554  0.52469851  0.78803807     0.01500
C352        C  0.72905083  0.54278491  0.77080689    -0.19000
H353        H  0.72775281  0.57022611  0.77411601     0.03600
H354        H  0.73349173  0.44496152  0.76053407     0.03600
C355        C  0.08717862  0.59179817  0.09879394     0.85800
C356        C  0.11219339  0.57315914  0.12151646    -0.54500
C357        C  0.13024488  0.59438033  0.14198308     0.08700
C358        C  0.12167788  0.63259973  0.13736429     0.19700
C359        C  0.06467157  0.61278501  0.12274211    -0.55200
C360        C  0.08256821  0.63441957  0.14302087     0.08800
C361        C  0.10859704  0.61794674  0.07960085    -0.54700
C362        C  0.12694515  0.63929343  0.09935666     0.09400
H363        H  0.11560582  0.54565475  0.12130282     0.13900
H364        H  0.13669106  0.64982389  0.15369606    -0.00400
H365        H  0.03705717  0.61055786  0.12376493     0.14200
H366        H  0.10971080  0.61906069  0.05233590     0.14000
C367        C  0.13617253  0.41121296  0.14820014     0.85800
C368        C  0.10798071  0.39357333  0.16841821    -0.54500
C369        C  0.08750118  0.37185850  0.15034418     0.08700
C370        C  0.09655387  0.37174170  0.11220807     0.19700
C371        C  0.15415482  0.38089027  0.13116420    -0.55200
C372        C  0.13454604  0.36136438  0.11051016     0.08800
C373        C  0.11757241  0.42981038  0.12008621    -0.54700
C374        C  0.09630349  0.40958746  0.10178261     0.09400
H375        H  0.10576443  0.39693691  0.19536115     0.13900
H376        H  0.07999831  0.35605441  0.09619584    -0.00400
H377        H  0.18000293  0.37334734  0.13642563     0.14200
H378        H  0.12061866  0.45699378  0.11545024     0.14000
C379        C  0.24988073  0.99615960  0.78066314     0.01600
C380        C  0.24445160  0.03177706  0.78419756     0.01500
C381        C  0.22060185  0.04737967  0.76256618    -0.19000
C382        C  0.20451025  0.02956355  0.73606240     0.01600
C383        C  0.20955308  0.99367081  0.73370576     0.01500
C384        C  0.23195867  0.97777965  0.75612272    -0.19000
H385        H  0.23579922  0.95044285  0.75426284     0.03600
H386        H  0.21561026  0.07439321  0.76543253     0.03600
C387        C  0.46979098  0.75967646  0.28621731     0.01600
C388        C  0.50600787  0.76038457  0.28697225     0.01500
C389        C  0.52347204  0.78350909  0.26590643    -0.19000
C390        C  0.50622973  0.80317673  0.24213019     0.01600
C391        C  0.47027091  0.80255267  0.24124037     0.01500
C392        C  0.45235973  0.78121045  0.26374828    -0.19000
H393        H  0.42478804  0.77988779  0.26244073     0.03600
H394        H  0.55108802  0.78467502  0.26651160     0.03600
C395        C  0.47596898  0.29774053  0.73461169     0.01600
C396        C  0.51213325  0.29783317  0.73621818     0.01500
C397        C  0.52803930  0.27717279  0.76057064    -0.19000
C398        C  0.50948042  0.25329457  0.77983345     0.01600
C399        C  0.47346437  0.25273344  0.77733330     0.01500
C400        C  0.45724301  0.27621526  0.75611288    -0.19000
H401        H  0.42962442  0.27655683  0.75507090     0.03600
H402        H  0.55550373  0.27815159  0.76315110     0.03600
C403        C  0.63051490  0.10981676  0.85559918     0.85800
C404        C  0.60912019  0.13660789  0.83734730    -0.54500
C405        C  0.59025714  0.15737856  0.85781065     0.08700
C406        C  0.59492439  0.14944940  0.89599018     0.19700
C407        C  0.65204638  0.13143583  0.87945161    -0.55200
C408        C  0.63428649  0.15100797  0.90206482     0.08800
C409        C  0.60470264  0.09087917  0.87801952    -0.54700
C410        C  0.58616314  0.11098565  0.89937996     0.09400
H411        H  0.60854680  0.13987139  0.81040137     0.13900
H412        H  0.57949051  0.16575404  0.91296936    -0.00400
H413        H  0.67963939  0.13138424  0.87774051     0.14200
H414        H  0.60215486  0.06325796  0.87774960     0.14000
N415        N  0.52771386  0.95328137  0.95683997    -0.06800
N416        N  0.53815815  0.92827372  0.93702516    -0.59000
N417        N  0.55064602  0.97413827  0.03464057    -0.06500
N418        N  0.57433279  0.96672474  0.05671024    -0.61100
N419        N  0.52783240  0.94951264  0.03303638    -0.06100
N420        N  0.53572921  0.92461891  0.05385327    -0.58900
N421        N  0.55136220  0.97724143  0.95832546    -0.05800
N422        N  0.57792692  0.96884576  0.93940817    -0.61400
C423        C  0.56911895  0.93866674  0.92550659     0.95300
C424        C  0.56454926  0.93591630  0.06861536     0.95100
N425        N  0.52654712  0.07767250  0.04110287    -0.07000
N426        N  0.53141494  0.09832492  0.06677924    -0.59500
N427        N  0.55037350  0.05791195  0.96233603    -0.05100
N428        N  0.57406376  0.06427138  0.93957748    -0.60800
N429        N  0.52757032  0.08247939  0.96322848    -0.07000
N430        N  0.53604108  0.10662668  0.94102498    -0.59800
N431        N  0.55092332  0.05473120  0.03957005    -0.04800
N432        N  0.57327273  0.05979822  0.06392020    -0.60900
Mn433      Mn  0.55123066  0.01612721  0.99871194     1.18400
C434        C  0.56055834  0.08695810  0.08090791     0.97400
C435        C  0.56509974  0.09456293  0.92629634     0.98100
N436        N  0.44715127  0.94756216  0.03548596    -0.07100
N437        N  0.44042019  0.92136097  0.05542393    -0.63400
N438        N  0.42019478  0.97481327  0.96153755    -0.05900
N439        N  0.39402309  0.96622850  0.94252371    -0.64000
N440        N  0.44458885  0.95184896  0.95890119    -0.06600
N441        N  0.43524497  0.92732466  0.93811165    -0.63600
N442        N  0.42306742  0.97076827  0.03823957    -0.05500
N443        N  0.39955597  0.96057087  0.06015067    -0.64300
Mn444      Mn  0.48679735  0.95007752  0.99571014     1.10700
C445        C  0.41116207  0.93009370  0.07135309     0.98600
C446        C  0.40402802  0.93697694  0.92747540     0.98700
N447        N  0.44458951  0.07957687  0.96496430    -0.06600
N448        N  0.43866052  0.10251328  0.94148092    -0.62000
N449        N  0.42202084  0.05253795  0.04230528    -0.05900
N450        N  0.39974115  0.05765953  0.06700797    -0.58700
N451        N  0.44602343  0.07615483  0.04267088    -0.07200
N452        N  0.44086346  0.09727753  0.06800998    -0.61500
N453        N  0.42022892  0.05626150  0.96520149    -0.06200
N454        N  0.39712277  0.06320717  0.94208662    -0.58700
Mn455      Mn  0.48602516  0.08000081  0.00276481     1.20200
Mn456      Mn  0.42058847  0.01375973  0.00191226     1.10100
Cl457      Cl  0.48611125  0.01501265  0.99952501    -0.86700
C458        C  0.40911148  0.09205299  0.92737135     0.95700
C459        C  0.41206992  0.08543860  0.08311665     0.95500
C460        C  0.58481786  0.91514829  0.09262722     0.85800
C461        C  0.56287468  0.89950612  0.12046137    -0.54500
C462        C  0.58077146  0.87999626  0.14231737     0.08700
C463        C  0.61925201  0.87764535  0.13415503     0.19700
C464        C  0.61304783  0.93474566  0.11091525    -0.55200
C465        C  0.63100934  0.91513590  0.13296599     0.08800
C466        C  0.60302561  0.88509123  0.07578471    -0.54700
C467        C  0.62140225  0.86555753  0.09743584     0.09400
H468        H  0.53544895  0.90300585  0.12245213     0.13900
H469        H  0.63392556  0.86128462  0.15159513    -0.00400
H470        H  0.61803836  0.96179642  0.10731071     0.14200
H471        H  0.60281594  0.88065448  0.04887268     0.14000
C472        C  0.34427162  0.86315027  0.90434972     0.85800
C473        C  0.32245304  0.88470058  0.88047907    -0.54500
C474        C  0.33853862  0.91123091  0.86411651     0.08700
C475        C  0.37753617  0.91115216  0.87161107     0.19700
C476        C  0.37171578  0.84954850  0.88041981    -0.55200
C477        C  0.38944565  0.87436792  0.86349661     0.08800
C478        C  0.36268604  0.88886892  0.92695381    -0.54700
C479        C  0.38042817  0.91356217  0.91001154     0.09400
H480        H  0.29710198  0.87659972  0.87370925     0.13900
H481        H  0.39328730  0.93089924  0.85934837    -0.00400
H482        H  0.37604208  0.82253082  0.87619780     0.14200
H483        H  0.36296853  0.88670615  0.95414576     0.14000
C484        C  0.39229210  0.15484146  0.85638729     0.85800
C485        C  0.36915706  0.12996613  0.83715860    -0.54500
C486        C  0.34674908  0.11157676  0.85644175     0.08700
C487        C  0.35363605  0.11577706  0.89462517     0.19700
C488        C  0.36821575  0.17434932  0.88015001    -0.55200
C489        C  0.34871807  0.15412563  0.90054563     0.08800
C490        C  0.41239179  0.13091244  0.87898944    -0.54700
C491        C  0.39274603  0.11080055  0.89950394     0.09400
H492        H  0.37025822  0.12597388  0.81040687     0.13900
H493        H  0.33746731  0.09979619  0.91144181    -0.00400
H494        H  0.36706776  0.20203422  0.88112421     0.14200
H495        H  0.44008004  0.13090861  0.87974746     0.14000
C496        C  0.63470754  0.86712823  0.91656743     0.85800
C497        C  0.61125641  0.89279721  0.93394226    -0.54500
C498        C  0.59485994  0.91435810  0.91259511     0.08700
C499        C  0.60402939  0.90889054  0.87517375     0.19700
C500        C  0.61188345  0.84929159  0.89071553    -0.55200
C501        C  0.59622154  0.87073064  0.86837050     0.08800
C502        C  0.65885482  0.88858545  0.89411222    -0.54700
C503        C  0.64333260  0.91080612  0.87277712     0.09400
H504        H  0.60722237  0.89326877  0.96095823     0.13900
H505        H  0.59107960  0.92733156  0.85855578    -0.00400
H506        H  0.60908242  0.82187421  0.88973041     0.14200
H507        H  0.68619019  0.88468108  0.89295513     0.14000
C508        C  0.34979989  0.85631715  0.09098295     0.85800
C509        C  0.37220144  0.88061339  0.07000463    -0.54500
C510        C  0.38912485  0.90459702  0.08824696     0.08700
C511        C  0.38282109  0.90181496  0.12648450     0.19700
C512        C  0.37430504  0.84102973  0.11700734    -0.55200
C513        C  0.39209105  0.86455749  0.13513549     0.08800
C514        C  0.32674382  0.87926936  0.11231747    -0.54700
C515        C  0.34366889  0.90317539  0.13046553     0.09400
H516        H  0.37422380  0.87915956  0.04281956     0.13900
H517        H  0.39666489  0.92120408  0.14146808    -0.00400
H518        H  0.37700632  0.81416567  0.12246212     0.14200
H519        H  0.29917517  0.87645095  0.11352137     0.14000
C520        C  0.47340691  0.77458271  0.71754974     0.01600
C521        C  0.50948701  0.77334721  0.71621039     0.01500
C522        C  0.52851041  0.79683204  0.73488465    -0.19000
C523        C  0.51302532  0.81871961  0.75854526     0.01600
C524        C  0.47675036  0.82050257  0.75932909     0.01500
C525        C  0.45791137  0.80018406  0.73698621    -0.19000
H526        H  0.43036331  0.80194787  0.73728896     0.03600
H527        H  0.55608246  0.79563793  0.73319818     0.03600
C528        C  0.38987651  0.14935278  0.15255034     0.85800
C529        C  0.41232500  0.12459086  0.13228006    -0.54500
C530        C  0.39446667  0.10376205  0.11091229     0.08700
C531        C  0.35509846  0.10885747  0.11304443     0.19700
C532        C  0.37063793  0.16754892  0.12456826    -0.55200
C533        C  0.35023979  0.14733733  0.10511963     0.08800
C534        C  0.36385184  0.12670537  0.17075530    -0.54700
C535        C  0.34592661  0.10523208  0.15068576     0.09400
H536        H  0.44001018  0.12550310  0.13267294     0.13900
H537        H  0.34033115  0.09107796  0.09723038    -0.00400
H538        H  0.37427959  0.19441538  0.11923627     0.14200
H539        H  0.36028217  0.12727529  0.19783715     0.14000
C540        C  0.57714614  0.14491155  0.15645954     0.85800
C541        C  0.60332525  0.12092495  0.17292905    -0.54500
C542        C  0.62362262  0.10347297  0.15108692     0.08700
C543        C  0.61565858  0.11109908  0.11383597     0.19700
C544        C  0.59844794  0.16735022  0.13280803    -0.55200
C545        C  0.61906669  0.15054838  0.11039634     0.08800
C546        C  0.55712493  0.12134231  0.13299913    -0.54700
C547        C  0.57675761  0.10416809  0.11005404     0.09400
H548        H  0.60633796  0.11698822  0.19957219     0.13900
H549        H  0.63196688  0.09594088  0.09679328    -0.00400
H550        H  0.59628820  0.19489957  0.13378236     0.14200
H551        H  0.52946023  0.11981108  0.13327461     0.14000
C552        C  0.97617923  0.71812434  0.24357659     0.01600
C553        C  0.01221325  0.71421928  0.24506767     0.01500
C554        C  0.03093790  0.73369453  0.26820882    -0.19000
C555        C  0.01518591  0.75808790  0.28894507     0.01600
C556        C  0.97930917  0.76179841  0.28762586     0.01500
C557        C  0.96033187  0.74172156  0.26521302    -0.19000
H558        H  0.93303866  0.74560931  0.26361501     0.03600
H559        H  0.05836519  0.73056342  0.26930942     0.03600
C560        C  0.73113707  0.98478869  0.21222045     0.01600
C561        C  0.72790073  0.02066790  0.21516270     0.01500
C562        C  0.74940035  0.03803661  0.23748578    -0.19000
C563        C  0.77186427  0.02002295  0.25841286     0.01600
C564        C  0.77356627  0.98413608  0.25651055     0.01500
C565        C  0.75404639  0.96710569  0.23263712    -0.19000
H566        H  0.75539286  0.93950412  0.23113261     0.03600
H567        H  0.74731482  0.06549544  0.23997482     0.03600
C568        C  0.70852371  0.28204678  0.46750373     0.01600
C569        C  0.70781347  0.28092287  0.50299388     0.01500
C570        C  0.72685293  0.25626924  0.51988528    -0.19000
C571        C  0.74735993  0.23324769  0.50221605     0.01600
C572        C  0.74768034  0.23378532  0.46672842     0.01500
C573        C  0.72778054  0.25792387  0.44982815    -0.19000
H574        H  0.72822018  0.25870916  0.42260935     0.03600
H575        H  0.72687902  0.25596301  0.54711939     0.03600
C576        C  0.26994396  0.74316369  0.53085840     0.01600
C577        C  0.27538901  0.74587298  0.49587433     0.01500
C578        C  0.25498197  0.76826563  0.47728013    -0.19000
C579        C  0.22952249  0.78819816  0.49273301     0.01600
C580        C  0.22457532  0.78574808  0.52807843     0.01500
C581        C  0.24516966  0.76344145  0.54656441    -0.19000
H582        H  0.24149089  0.76137730  0.57351214     0.03600
H583        H  0.25847897  0.76967719  0.45028021     0.03600
C584        C  0.84541230  0.15035468  0.39206729     0.85800
C585        C  0.87549259  0.16647287  0.37302271    -0.54500
C586        C  0.89551600  0.14365769  0.35648751     0.08700
C587        C  0.88539570  0.10618408  0.36208052     0.19700
C588        C  0.82764024  0.12776517  0.36630395    -0.55200
C589        C  0.84769404  0.10366176  0.35113434     0.08800
C590        C  0.86300366  0.12517064  0.41614960    -0.54700
C591        C  0.88451334  0.10268943  0.40049326     0.09400
H592        H  0.88229860  0.19313057  0.37328495     0.13900
H593        H  0.90303084  0.08771418  0.35036890    -0.00400
H594        H  0.80064444  0.13051756  0.36106859     0.14200
H595        H  0.85978930  0.12603377  0.44324655     0.14000
N596        N  0.94235923  0.04678776  0.55861218    -0.06800
N597        N  0.93137527  0.06855173  0.58164813    -0.59000
N598        N  0.92462070  0.96704724  0.53556060    -0.06500
N599        N  0.90223333  0.94278412  0.54245071    -0.61100
N600        N  0.94699891  0.96961747  0.55980070    -0.06100
N601        N  0.94046784  0.94708894  0.58354370    -0.58900
N602        N  0.92020544  0.04450496  0.53404400    -0.05800
N603        N  0.89431103  0.06508370  0.53942503    -0.61400
C604        C  0.90153811  0.07994069  0.56903141     0.95300
C605        C  0.91299233  0.93004376  0.57207351     0.95100
N606        N  0.95014307  0.96648268  0.43269389    -0.07000
N607        N  0.94407947  0.94346773  0.40926186    -0.59500
N608        N  0.92219098  0.04332417  0.45524170    -0.05100
N609        N  0.89701521  0.06444798  0.44862060    -0.60800
N610        N  0.94575789  0.04460286  0.43149308    -0.07000
N611        N  0.93654368  0.06631566  0.40776902    -0.59800
N612        N  0.92643045  0.96507480  0.45620523    -0.04800
N613        N  0.90387415  0.94107304  0.44913794    -0.60900
Mn614      Mn  0.92275504  0.00487782  0.49522903     1.18400
C615        C  0.91560774  0.92711790  0.42023330     0.97400
C616        C  0.90624504  0.07863544  0.41904749     0.98100
N617        N  0.02597636  0.97270064  0.56242012    -0.07100
N618        N  0.03232465  0.95050329  0.58648688    -0.63400
N619        N  0.04872306  0.05001618  0.53696877    -0.05900
N620        N  0.07311287  0.07210512  0.54340586    -0.64000
N621        N  0.02538128  0.05033115  0.56095788    -0.06600
N622        N  0.03410109  0.07233609  0.58471967    -0.63600
N623        N  0.05002614  0.97200008  0.53924708    -0.05500
N624        N  0.07342024  0.94928307  0.54727060    -0.64300
Mn625      Mn  0.98508357  0.01035074  0.56123877     1.10700
C626        C  0.06159670  0.93548155  0.57640649     0.98600
C627        C  0.06380501  0.08595087  0.57304069     0.98700
N628        N  0.02896862  0.04791950  0.43261003    -0.06600
N629        N  0.03875535  0.06949750  0.40857895    -0.62000
N630        N  0.05203997  0.97039071  0.45950654    -0.05900
N631        N  0.07532205  0.94660576  0.45491748    -0.58700
N632        N  0.02999245  0.97006951  0.43481366    -0.07200
N633        N  0.03789614  0.94614935  0.41286050    -0.61500
N634        N  0.05085449  0.04862797  0.45753244    -0.06200
N635        N  0.07518597  0.07108667  0.45138094    -0.58700
Mn636      Mn  0.98874190  0.00765634  0.43191525     1.20200
Mn637      Mn  0.05101389  0.01023443  0.49823694     1.10100
Cl638      Cl  0.98691955  0.00867027  0.49662034    -0.86700
C639        C  0.06741174  0.08413382  0.42100665     0.95700
C640        C  0.06588851  0.93136587  0.42600969     0.95500
C641        C  0.84995094  0.90260143  0.35418018     0.85800
C642        C  0.87368324  0.87629059  0.33783291    -0.54500
C643        C  0.89455536  0.85892966  0.35938496     0.08700
C644        C  0.88821788  0.86891851  0.39671478     0.19700
C645        C  0.82969842  0.88134040  0.38030210    -0.55200
C646        C  0.84932973  0.86390760  0.40255825     0.08800
C647        C  0.87312064  0.92523853  0.37548027    -0.54700
C648        C  0.89317877  0.90803746  0.39740575     0.09400
H649        H  0.87413494  0.87213859  0.31088234     0.13900
H650        H  0.90445509  0.85571101  0.41522201    -0.00400
H651        H  0.80226748  0.87914091  0.38188881     0.14200
H652        H  0.87335164  0.95291999  0.37361998     0.14000
C653        C  0.08748420  0.90609926  0.40745074     0.85800
C654        C  0.06729373  0.87761474  0.39042633    -0.54500
C655        C  0.08702933  0.85499032  0.37290736     0.08700
C656        C  0.12569898  0.86364263  0.37389634     0.19700
C657        C  0.11377655  0.88773885  0.42912873    -0.55200
C658        C  0.13399052  0.86531289  0.41192382     0.08800
C659        C  0.10816245  0.92301913  0.37933846    -0.54700
C660        C  0.12815706  0.90110903  0.36158949     0.09400
H661        H  0.03963550  0.87616522  0.39125128     0.13900
H662        H  0.14215488  0.84595569  0.35933374    -0.00400
H663        H  0.11597771  0.89178865  0.45599032     0.14200
H664        H  0.10743154  0.95024134  0.37410010     0.14000
C665        C  0.08241597  0.91298211  0.59884402     0.85800
C666        C  0.10710448  0.88984513  0.57981661    -0.54500
C667        C  0.12702566  0.87017598  0.59991025     0.08700
C668        C  0.11980462  0.87531340  0.63804750     0.19700
C669        C  0.06154574  0.88887459  0.62152577    -0.55200
C670        C  0.08070778  0.86869460  0.64206553     0.08800
C671        C  0.10468750  0.93363565  0.62269151    -0.54700
C672        C  0.12439402  0.91445201  0.64344662     0.09400
H673        H  0.10894867  0.88919696  0.55259041     0.13900
H674        H  0.13584100  0.85930965  0.65461393    -0.00400
H675        H  0.03387397  0.88754617  0.62110140     0.14200
H676        H  0.10511921  0.96135415  0.62287030     0.14000
C677        C  0.83381104  0.14741367  0.58556374     0.85800
C678        C  0.85715333  0.12373273  0.56581482    -0.54500
C679        C  0.87847072  0.10474062  0.58501365     0.08700
C680        C  0.87414522  0.11074448  0.62313442     0.19700
C681        C  0.81505199  0.12472060  0.61138025    -0.55200
C682        C  0.83595744  0.10484571  0.63016943     0.08800
C683        C  0.85820427  0.16846126  0.60761444    -0.54700
C684        C  0.87927195  0.14964602  0.62791533     0.09400
H685        H  0.85682966  0.12223649  0.53857602     0.13900
H686        H  0.88993929  0.09401005  0.63900032    -0.00400
H687        H  0.78774657  0.12519779  0.61581789     0.14200
H688        H  0.85793625  0.19607219  0.60765799     0.14000
C689        C  0.89166568  0.90793272  0.59425745     0.85800
C690        C  0.91257999  0.88445340  0.61666416    -0.54500
C691        C  0.89336005  0.86519336  0.63820465     0.08700
C692        C  0.85452355  0.87102803  0.63497162     0.19700
C693        C  0.86691133  0.88442267  0.57610823    -0.55200
C694        C  0.84750758  0.86488461  0.59722606     0.08800
C695        C  0.86967583  0.92894681  0.61828229    -0.54700
C696        C  0.85016200  0.91002557  0.63992847     0.09400
H697        H  0.94025074  0.88313052  0.61565043     0.13900
H698        H  0.83898717  0.85490079  0.65224093    -0.00400
H699        H  0.86503136  0.88296033  0.54894861     0.14200
H700        H  0.87019070  0.95668283  0.61870029     0.14000
C701        C  0.71359459  0.73590009  0.51771809     0.01600
C702        C  0.71612171  0.73692398  0.48233956     0.01500
C703        C  0.74007340  0.75888459  0.46696458    -0.19000
C704        C  0.76203696  0.77942541  0.48613192     0.01600
C705        C  0.75790641  0.77949638  0.52145216     0.01500
C706        C  0.73387858  0.75788382  0.53676937    -0.19000
H707        H  0.73155915  0.75752521  0.56392463     0.03600
H708        H  0.74211615  0.75940832  0.43981164     0.03600
C709        C  0.14169618  0.14405819  0.40117202     0.85800
C710        C  0.12518555  0.16279043  0.37193252    -0.54500
C711        C  0.10261145  0.14410236  0.35362563     0.08700
C712        C  0.10045572  0.10641470  0.36523826     0.19700
C713        C  0.11208590  0.12842252  0.42133437    -0.55200
C714        C  0.09072627  0.10811291  0.40313527     0.08800
C715        C  0.15835916  0.11245215  0.38605037    -0.54700
C716        C  0.13821584  0.09382426  0.36484808     0.09400
H717        H  0.13032472  0.18961224  0.36699502     0.13900
H718        H  0.08220877  0.09104662  0.35069664    -0.00400
H719        H  0.10988566  0.13098614  0.44842487     0.14200
H720        H  0.18374989  0.10426750  0.39248294     0.14000
C721        C  0.13002809  0.15452334  0.59169231     0.85800
C722        C  0.10826291  0.17261189  0.61846711    -0.54500
C723        C  0.08746289  0.15160063  0.63669503     0.08700
C724        C  0.09202246  0.11353512  0.62843905     0.19700
C725        C  0.15023458  0.12848883  0.61241635    -0.55200
C726        C  0.13105504  0.10732363  0.63272667     0.08800
C727        C  0.10539360  0.13288388  0.57145791    -0.54700
C728        C  0.08555851  0.11127492  0.59015407     0.09400
H729        H  0.10951846  0.19976311  0.62350222     0.13900
H730        H  0.07492846  0.09710152  0.64370821    -0.00400
H731        H  0.17783916  0.12810805  0.61222556     0.14200
H732        H  0.10445673  0.13392121  0.54421254     0.14000
C733        C  0.99993131  0.72611305  0.76648862     0.01600
C734        C  0.96380787  0.72871923  0.76927660     0.01500
C735        C  0.94720373  0.75184229  0.74800245    -0.19000
C736        C  0.96531617  0.77254116  0.72492009     0.01600
C737        C  0.00151633  0.77204543  0.72422771     0.01500
C738        C  0.01796392  0.74761814  0.74390597    -0.19000
H739        H  0.04553699  0.74610195  0.74242321     0.03600
H740        H  0.91968550  0.75395583  0.74951040     0.03600
C741        C  0.72988191  0.98973503  0.78220903     0.01600
C742        C  0.72526951  0.02509174  0.77666159     0.01500
C743        C  0.74634546  0.04182570  0.75312414    -0.19000
C744        C  0.77072934  0.02394234  0.73399993     0.01600
C745        C  0.77404757  0.98814695  0.73856936     0.01500
C746        C  0.75402009  0.97179100  0.76318481    -0.19000
H747        H  0.75646914  0.94447762  0.76687420     0.03600
H748        H  0.74325795  0.06900998  0.74912760     0.03600
C749        C  0.76056377  0.73020781  0.99591029     0.01600
C750        C  0.76171794  0.73018728  0.03166972     0.01500
C751        C  0.73948355  0.75168711  0.04983962    -0.19000
C752        C  0.71609283  0.77294860  0.03351663     0.01600
C753        C  0.71500258  0.77289591  0.99805425     0.01500
C754        C  0.73678654  0.75131975  0.97979636    -0.19000
H755        H  0.73559563  0.75145308  0.95261628     0.03600
H756        H  0.74073787  0.75232481  0.07700110     0.03600
C757        C  0.90953182  0.84020157  0.66089784    -0.06800
C758        C  0.93148659  0.81577687  0.64679081    -0.18000
C759        C  0.94866713  0.79227674  0.66695122     0.10400
C760        C  0.94547823  0.79460807  0.70214301    -0.06800
C761        C  0.92264791  0.81819261  0.71618356    -0.18000
C762        C  0.90492411  0.84109733  0.69599983     0.10400
S763        S  0.97257551  0.75813796  0.64754915    -0.33000
S764        S  0.87946534  0.87282762  0.71667782    -0.33000
H765        H  0.89509030  0.89958872  0.69865891     0.28400
H766        H  0.96739494  0.76811666  0.61404768     0.28400
H767        H  0.93481815  0.81495040  0.61981329     0.19000
H768        H  0.91978255  0.81976303  0.74322115     0.19000
C769        C  0.83069987  0.92700327  0.66752381    -0.06800
C770        C  0.84758134  0.95202252  0.68657433    -0.18000
C771        C  0.83059956  0.97068480  0.71143571     0.10400
C772        C  0.79511141  0.96636003  0.71591900    -0.06800
C773        C  0.77839533  0.94073917  0.69763275    -0.18000
C774        C  0.79585918  0.92058844  0.67406655     0.10400
S775        S  0.85601356  0.99822786  0.73739316    -0.33000
S776        S  0.77282620  0.88801945  0.65182476    -0.33000
H777        H  0.74019436  0.89550451  0.66469815     0.28400
H778        H  0.83491352  0.99530646  0.76597387     0.28400
H779        H  0.87458143  0.95658937  0.68251056     0.19000
H780        H  0.75128470  0.93695271  0.70153880     0.19000
C781        C  0.82288508  0.84021086  0.58339087    -0.06800
C782        C  0.78997477  0.85162266  0.57604776    -0.18000
C783        C  0.76767794  0.83181726  0.55698823     0.10400
C784        C  0.77935649  0.80073725  0.54322545    -0.06800
C785        C  0.81216550  0.78918913  0.55061474    -0.18000
C786        C  0.83376055  0.80836478  0.57092895     0.10400
S787        S  0.72532794  0.84841886  0.55033801    -0.33000
S788        S  0.87537252  0.79167895  0.57929735    -0.33000
H789        H  0.87200424  0.79807921  0.61383419     0.28400
H790        H  0.71748387  0.83008064  0.52117316     0.28400
H791        H  0.78213322  0.87687456  0.58373059     0.19000
H792        H  0.82095206  0.76508942  0.54047518     0.19000
C793        C  0.82241452  0.08141097  0.65629798    -0.06800
C794        C  0.82795195  0.08948694  0.69003261    -0.18000
C795        C  0.81208009  0.07088255  0.71591109     0.10400
C796        C  0.79034888  0.04310475  0.70792396    -0.06800
C797        C  0.78543962  0.03470579  0.67408105    -0.18000
C798        C  0.80137536  0.05329086  0.64830739     0.10400
S799        S  0.82027380  0.08459410  0.75835371    -0.33000
S800        S  0.79349466  0.04001640  0.60576951    -0.33000
H801        H  0.82491583  0.05124297  0.59250709     0.28400
H802        H  0.81293346  0.05348526  0.77442301     0.28400
H803        H  0.84391410  0.11118317  0.69623141     0.19000
H804        H  0.76857223  0.01380128  0.66764558     0.19000
C805        C  0.06380482  0.84337925  0.66534869    -0.06800
C806        C  0.04014350  0.85532506  0.68928708    -0.18000
C807        C  0.02092571  0.83280503  0.70966380     0.10400
C808        C  0.02300874  0.79718834  0.70439609    -0.06800
C809        C  0.04745168  0.78516457  0.68116060    -0.18000
C810        C  0.06796206  0.80774950  0.66192154     0.10400
S811        S  0.99595131  0.84975768  0.74404058    -0.33000
S812        S  0.09812119  0.79077448  0.63195978    -0.33000
H813        H  0.09084437  0.75606154  0.63764214     0.28400
H814        H  0.00482832  0.88424776  0.73928750     0.28400
H815        H  0.03687332  0.88256369  0.69215528     0.19000
H816        H  0.05003184  0.75789772  0.67775590     0.19000
C817        C  0.83277111  0.84247946  0.42908014    -0.06800
C818        C  0.83260542  0.80694947  0.42526400    -0.18000
C819        C  0.81237659  0.78584736  0.44582489     0.10400
C820        C  0.78872829  0.80049318  0.46856828    -0.06800
C821        C  0.78888529  0.83612712  0.47244722    -0.18000
C822        C  0.81127784  0.85700185  0.45389063     0.10400
S823        S  0.81779397  0.74040167  0.44171112    -0.33000
S824        S  0.80981786  0.90224725  0.46172236    -0.33000
H825        H  0.84370015  0.90854296  0.45197829     0.28400
H826        H  0.81061035  0.73314471  0.47566555     0.28400
H827        H  0.84694514  0.79551110  0.40504539     0.19000
H828        H  0.77082211  0.84803205  0.48933004     0.19000
C829        C  0.20739001  0.80920955  0.47065504    -0.06800
C830        C  0.18767330  0.79219307  0.44660506    -0.18000
C831        C  0.16442777  0.80968251  0.42645521     0.10400
C832        C  0.16090301  0.84541246  0.42965946    -0.06800
C833        C  0.18210164  0.86265905  0.45247017    -0.18000
C834        C  0.20555085  0.84515227  0.47250416     0.10400
S835        S  0.13801171  0.78437191  0.39954737    -0.33000
S836        S  0.23303082  0.87040158  0.49877854    -0.33000
H837        H  0.25974876  0.84667760  0.50057753     0.28400
H838        H  0.10803643  0.79885601  0.41247693     0.28400
H839        H  0.18928550  0.76465803  0.44459813     0.19000
H840        H  0.18044232  0.89016867  0.45464418     0.19000
C841        C  0.15231496  0.84639225  0.58462039    -0.06800
C842        C  0.14060276  0.82190202  0.56163905    -0.18000
C843        C  0.16324209  0.80112747  0.54358046     0.10400
C844        C  0.19874666  0.80602316  0.54702746    -0.06800
C845        C  0.21046147  0.82995059  0.57054955    -0.18000
C846        C  0.18772258  0.85021716  0.58923682     0.10400
S847        S  0.14502246  0.76819957  0.51769440    -0.33000
S848        S  0.20431440  0.88232705  0.61706444    -0.33000
H849        H  0.23911042  0.87552858  0.61157682     0.28400
H850        H  0.17259278  0.74549079  0.51970547     0.28400
H851        H  0.11341977  0.81876082  0.55795878     0.19000
H852        H  0.23768368  0.83324528  0.57360257     0.19000
C853        C  0.77105214  0.21211980  0.44666399    -0.06800
C854        C  0.79487829  0.22842847  0.42570096    -0.18000
C855        C  0.81659337  0.20981427  0.40474959     0.10400
C856        C  0.81946773  0.17383805  0.40941610    -0.06800
C857        C  0.79434747  0.15769421  0.42951935    -0.18000
C858        C  0.76886736  0.17622166  0.44597774     0.10400
S859        S  0.83206579  0.23321468  0.36867830    -0.33000
S860        S  0.73245251  0.15260206  0.46150033    -0.33000
H861        H  0.70934338  0.17993275  0.46118691     0.28400
H862        H  0.82603745  0.20626843  0.34615885     0.28400
H863        H  0.79456303  0.25602603  0.42360480     0.19000
H864        H  0.79337221  0.13006962  0.43076205     0.19000
C865        C  0.81110620  0.16834842  0.56213752    -0.06800
C866        C  0.82404709  0.19916173  0.54859330    -0.18000
C867        C  0.80407553  0.22058885  0.52877834     0.10400
C868        C  0.77019119  0.21116493  0.52181099    -0.06800
C869        C  0.75748419  0.18014531  0.53400341    -0.18000
C870        C  0.77828463  0.15746234  0.55140492     0.10400
S871        S  0.82353916  0.25952191  0.51340402    -0.33000
S872        S  0.76236074  0.11430399  0.55470023    -0.33000
H873        H  0.79423029  0.09887553  0.54940601     0.28400
H874        H  0.79368798  0.27869280  0.50939937     0.28400
H875        H  0.85012628  0.20679038  0.55317525     0.19000
H876        H  0.73150289  0.17277066  0.52845209     0.19000
C877        C  0.82990182  0.92374791  0.32827045    -0.06800
C878        C  0.79388574  0.92490153  0.32907820    -0.18000
C879        C  0.77532244  0.94432538  0.30606870     0.10400
C880        C  0.79265767  0.96352730  0.28137460    -0.06800
C881        C  0.82827414  0.96262633  0.27995686    -0.18000
C882        C  0.84712201  0.94352037  0.30316249     0.10400
S883        S  0.72922683  0.94485200  0.30871132    -0.33000
S884        S  0.89322678  0.94507643  0.30005334    -0.33000
H885        H  0.89564338  0.97091062  0.27555978     0.28400
H886        H  0.72548188  0.92002757  0.33403744     0.28400
H887        H  0.77946320  0.91124032  0.34774132     0.19000
H888        H  0.84130700  0.97680396  0.26033549     0.19000
C889        C  0.79182894  0.03886090  0.28356619    -0.06800
C890        C  0.82597660  0.04648705  0.27615115    -0.18000
C891        C  0.84653485  0.06444453  0.29881036     0.10400
C892        C  0.83172795  0.07717186  0.32891238    -0.06800
C893        C  0.79818649  0.06670949  0.33717029    -0.18000
C894        C  0.77806717  0.04815832  0.31497261     0.10400
S895        S  0.89103146  0.06966433  0.28825463    -0.33000
S896        S  0.73504405  0.03818462  0.32864466    -0.33000
H897        H  0.72300871  0.02186056  0.29983064     0.28400
H898        H  0.89167504  0.04881236  0.25956749     0.28400
H899        H  0.83646789  0.03826254  0.25229142     0.19000
H900        H  0.78696391  0.07380183  0.36109183     0.19000
C901        C  0.03661992  0.78038421  0.31080378    -0.06800
C902        C  0.03022516  0.78092503  0.34551042    -0.18000
C903        C  0.04652467  0.80447582  0.36653414     0.10400
C904        C  0.07164410  0.82674359  0.35296654    -0.06800
C905        C  0.08029300  0.82400902  0.31886064    -0.18000
C906        C  0.06238083  0.80197307  0.29743403     0.10400
S907        S  0.03533785  0.80518637  0.41067503    -0.33000
S908        S  0.07109174  0.80340564  0.25282042    -0.33000
H909        H  0.09455978  0.83062200  0.25340168     0.28400
H910        H  0.00767176  0.78230746  0.40902253     0.28400
H911        H  0.01186156  0.76317703  0.35604583     0.19000
H912        H  0.09998686  0.84046888  0.30866329     0.19000
C913        C  0.96100199  0.78803002  0.30770342    -0.06800
C914        C  0.94648967  0.77862982  0.33866873    -0.18000
C915        C  0.92806608  0.80210620  0.35838710     0.10400
C916        C  0.92135469  0.83514877  0.34548895    -0.06800
C917        C  0.93810701  0.84494192  0.31544271    -0.18000
C918        C  0.95777602  0.82202876  0.29662547     0.10400
S919        S  0.91438085  0.78906610  0.39970434    -0.33000
S920        S  0.97767096  0.83795309  0.25862021    -0.33000
H921        H  0.97936986  0.80694733  0.24114460     0.28400
H922        H  0.93042104  0.75702138  0.40012416     0.28400
H923        H  0.94997448  0.75272534  0.34747615     0.19000
H924        H  0.93505923  0.87065366  0.30589002     0.19000
C925        C  0.65067656  0.07999765  0.16402036    -0.06800
C926        C  0.64139635  0.05587863  0.18872734    -0.18000
C927        C  0.66598682  0.03679489  0.20600144     0.10400
C928        C  0.70081222  0.04014686  0.19719334    -0.06800
C929        C  0.71018151  0.06388002  0.17226845    -0.18000
C930        C  0.68571721  0.08421057  0.15621895     0.10400
S931        S  0.65296765  0.01110843  0.24162050    -0.33000
S932        S  0.70112397  0.11737940  0.12874439    -0.33000
H933        H  0.68163933  0.14287726  0.14457048     0.28400
H934        H  0.61758177  0.01445661  0.23725498     0.28400
H935        H  0.61475647  0.05328021  0.19567591     0.19000
H936        H  0.73694230  0.06749015  0.16617711     0.19000
C937        C  0.66406864  0.93240175  0.84895851    -0.06800
C938        C  0.69561473  0.94516956  0.86027794    -0.18000
C939        C  0.71824705  0.96246968  0.83889325     0.10400
C940        C  0.70803633  0.97025149  0.80590594    -0.06800
C941        C  0.67671075  0.95802327  0.79436843    -0.18000
C942        C  0.65525022  0.93806880  0.81494501     0.10400
S943        S  0.75985163  0.97286909  0.85542576    -0.33000
S944        S  0.61921540  0.91737485  0.79585367    -0.33000
H945        H  0.62405200  0.92991716  0.76304938     0.28400
H946        H  0.77138272  0.99493354  0.82994583     0.28400
H947        H  0.70327891  0.94091882  0.88600154     0.19000
H948        H  0.66982372  0.96308835  0.76857351     0.19000
C949        C  0.65346549  0.84346912  0.94130315    -0.06800
C950        C  0.68687883  0.85210879  0.95138862    -0.18000
C951        C  0.70720115  0.82942408  0.96948231     0.10400
C952        C  0.69375425  0.79767357  0.97935886    -0.06800
C953        C  0.65964589  0.78994861  0.97228142    -0.18000
C954        C  0.63881807  0.81321950  0.95506025     0.10400
S955        S  0.75065910  0.84090593  0.97927902    -0.33000
S956        S  0.59343866  0.80499719  0.95366427    -0.33000
H957        H  0.59334312  0.77505375  0.97321349     0.28400
H958        H  0.75145573  0.87221774  0.96195318     0.28400
H959        H  0.69739364  0.87688191  0.94539112     0.19000
H960        H  0.64922032  0.76581045  0.98077627     0.19000
C961        C  0.57623077  0.85812059  0.83892775    -0.06800
C962        C  0.54995571  0.87840083  0.82571083    -0.18000
C963        C  0.53186960  0.86833855  0.79709003     0.10400
C964        C  0.53552727  0.83464965  0.78468287    -0.06800
C965        C  0.56170309  0.81447323  0.79816485    -0.18000
C966        C  0.58379886  0.82696944  0.82244859     0.10400
S967        S  0.50759470  0.90080054  0.77604335    -0.33000
S968        S  0.62317370  0.80377848  0.82722496    -0.33000
H969        H  0.64335721  0.83323879  0.83130695     0.28400
H970        H  0.51045433  0.88591198  0.74407613     0.28400
H971        H  0.54452818  0.90312387  0.83647972     0.19000
H972        H  0.56619496  0.78897154  0.78873880     0.19000
C973        C  0.45712554  0.83880505  0.78595601    -0.06800
C974        C  0.46345390  0.83085517  0.81975111    -0.18000
C975        C  0.44356190  0.84471438  0.84570725     0.10400
C976        C  0.41535830  0.86534671  0.83779780    -0.06800
C977        C  0.40919793  0.87374217  0.80425052    -0.18000
C978        C  0.43010073  0.86144196  0.77835594     0.10400
S979        S  0.45426758  0.83591716  0.88885786    -0.33000
S980        S  0.42053557  0.87551334  0.73629689    -0.33000
H981        H  0.45339407  0.87082621  0.72280789     0.28400
H982        H  0.48492189  0.81854509  0.88220736     0.28400
H983        H  0.48359675  0.81312800  0.82579001     0.19000
H984        H  0.38717079  0.88895372  0.79802280     0.19000
C985        C  0.64502601  0.83869916  0.08535686    -0.06800
C986        C  0.68021100  0.84422831  0.08880652    -0.18000
C987        C  0.70416167  0.82314780  0.07274325     0.10400
C988        C  0.69270429  0.79498752  0.05362008    -0.06800
C989        C  0.65756732  0.78805812  0.05252447    -0.18000
C990        C  0.63364637  0.80988375  0.06737291     0.10400
S991        S  0.74854806  0.83466849  0.07700485    -0.33000
S992        S  0.58913600  0.79975099  0.06155856    -0.33000
H993        H  0.57610152  0.81878142  0.08850834     0.28400
H994        H  0.76121678  0.81795872  0.04847023     0.28400
H995        H  0.68908824  0.86635675  0.10253142     0.19000
H996        H  0.64859702  0.76572501  0.03928035     0.19000
C997        C  0.65891160  0.92951917  0.15341370    -0.06800
C998        C  0.68365136  0.94994794  0.13727134    -0.18000
C999        C  0.70867528  0.96704666  0.15552531     0.10400
C1000       C  0.70842855  0.96443086  0.19077844    -0.06800
C1001       C  0.68526152  0.94235873  0.20672695    -0.18000
C1002       C  0.66024523  0.92515405  0.18860863     0.10400
S1003       S  0.74046486  0.99106516  0.13244632    -0.33000
S1004       S  0.62932265  0.89983059  0.21147233    -0.33000
H1005       H  0.63740135  0.91144454  0.24383700     0.28400
H1006       H  0.76616764  0.98878745  0.15671864     0.28400
H1007       H  0.68340964  0.95263850  0.11019117     0.19000
H1008       H  0.68599150  0.93980473  0.23379277     0.19000
C1009       C  0.65272291  0.08532255  0.83428843    -0.06800
C1010       C  0.65155638  0.08493810  0.79878604    -0.18000
C1011       C  0.67349007  0.06431012  0.77956349     0.10400
C1012       C  0.69906461  0.04507949  0.79554657    -0.06800
C1013       C  0.69996787  0.04497530  0.83056737    -0.18000
C1014       C  0.67574327  0.06235312  0.84989512     0.10400
S1015       S  0.66696569  0.06306325  0.73480766    -0.33000
S1016       S  0.67409677  0.05308724  0.89428455    -0.33000
H1017       H  0.69684438  0.02539025  0.89419389     0.28400
H1018       H  0.67767846  0.02910854  0.73056187     0.28400
H1019       H  0.63294013  0.09955408  0.78530073     0.19000
H1020       H  0.71977121  0.03099528  0.84303505     0.19000
C1021       C  0.45233758  0.22786769  0.79665931    -0.06800
C1022       C  0.45608874  0.22615072  0.83155009    -0.18000
C1023       C  0.43790449  0.20236752  0.85108898     0.10400
C1024       C  0.41431045  0.17979740  0.83555586    -0.06800
C1025       C  0.40965701  0.18306228  0.80057555    -0.18000
C1026       C  0.42860468  0.20598380  0.78108751     0.10400
S1027       S  0.44470542  0.20238124  0.89596517    -0.33000
S1028       S  0.42103138  0.20521903  0.73635706    -0.33000
H1029       H  0.45394002  0.21500093  0.72601332     0.28400
H1030       H  0.47219628  0.22552564  0.89640317     0.28400
H1031       H  0.47339656  0.24380667  0.84353902     0.19000
H1032       H  0.39085753  0.16842336  0.78739075     0.19000
C1033       C  0.52856290  0.22828692  0.80105442    -0.06800
C1034       C  0.54861774  0.24043806  0.82755420    -0.18000
C1035       C  0.56832646  0.21824119  0.84721135     0.10400
C1036       C  0.56641133  0.18256314  0.84209512    -0.06800
C1037       C  0.54509617  0.17048047  0.81642956    -0.18000
C1038       C  0.52767804  0.19272270  0.79508624     0.10400
S1039       S  0.59777243  0.23756068  0.87569867    -0.33000
S1040       S  0.50767219  0.17406029  0.75894007    -0.33000
H1041       H  0.51420862  0.20184782  0.73745091     0.28400
H1042       H  0.62470164  0.21525182  0.86798959     0.28400
H1043       H  0.55010578  0.26767515  0.83199545     0.19000
H1044       H  0.54397251  0.14333047  0.81134583     0.19000
C1045       C  0.45160691  0.82120845  0.21449728    -0.06800
C1046       C  0.45616679  0.81046259  0.18124041    -0.18000
C1047       C  0.44010617  0.82689404  0.15465713     0.10400
C1048       C  0.41663318  0.85339821  0.16126084    -0.06800
C1049       C  0.41310145  0.86528722  0.19434648    -0.18000
C1050       C  0.43041570  0.84960307  0.22099184     0.10400
S1051       S  0.45120214  0.81315857  0.11274685    -0.33000
S1052       S  0.42367693  0.86641474  0.26260808    -0.33000
H1053       H  0.45539023  0.85664093  0.27558931     0.28400
H1054       H  0.44482573  0.84480089  0.09729843     0.28400
H1055       H  0.47247550  0.78897794  0.17583800     0.19000
H1056       H  0.39622628  0.88630405  0.19969048     0.19000
C1057       C  0.52650795  0.82287879  0.21720018    -0.06800
C1058       C  0.52718165  0.85857153  0.21931742    -0.18000
C1059       C  0.54485622  0.87809984  0.19523752     0.10400
C1060       C  0.56365979  0.86133654  0.16978342    -0.06800
C1061       C  0.56347969  0.82582705  0.16810826    -0.18000
C1062       C  0.54383214  0.80651002  0.19052321     0.10400
S1063       S  0.54358181  0.92415706  0.19730854    -0.33000
S1064       S  0.53811449  0.76169905  0.18229172    -0.33000
H1065       H  0.55398126  0.76112885  0.15048719     0.28400
H1066       H  0.52151307  0.92637113  0.22524338     0.28400
H1067       H  0.51320556  0.87098911  0.23938923     0.19000
H1068       H  0.57729515  0.81335264  0.14799045     0.19000
C1069       C  0.19075491  0.97126127  0.70970024    -0.06800
C1070       C  0.16721696  0.94752387  0.72298232    -0.18000
C1071       C  0.14622474  0.92788007  0.70211770     0.10400
C1072       C  0.14869626  0.93146182  0.66693421    -0.06800
C1073       C  0.17302913  0.95444741  0.65363071    -0.18000
C1074       C  0.19461696  0.97353523  0.67444047     0.10400
S1075       S  0.11480523  0.90086960  0.72185295    -0.33000
S1076       S  0.22648216  0.00012946  0.65443392    -0.33000
H1077       H  0.24957238  0.99976432  0.68121353     0.28400
H1078       H  0.08833562  0.91303684  0.70158373     0.28400
H1079       H  0.16412920  0.94535321  0.74996923     0.19000
H1080       H  0.17533726  0.95741602  0.62665230     0.19000
C1081       C  0.14797990  0.08638684  0.65993612    -0.06800
C1082       C  0.17902192  0.09858606  0.67304058    -0.18000
C1083       C  0.19841046  0.07969203  0.69556387     0.10400
C1084       C  0.18479524  0.04961491  0.71029880    -0.06800
C1085       C  0.15239041  0.03861726  0.69947141    -0.18000
C1086       C  0.13504919  0.05520716  0.67306931     0.10400
S1087       S  0.24152502  0.09454505  0.70177198    -0.33000
S1088       S  0.09836494  0.03450773  0.65503527    -0.33000
H1089       H  0.10011300  0.00409290  0.67377418     0.28400
H1090       H  0.25594772  0.06181446  0.70387558     0.28400
H1091       H  0.18944084  0.12284470  0.66493234     0.19000
H1092       H  0.14105538  0.01622885  0.71091561     0.19000
C1093       C  0.31663275  0.09380075  0.84059525    -0.06800
C1094       C  0.30052069  0.06586506  0.85635391    -0.18000
C1095       C  0.27380954  0.04799261  0.84051118     0.10400
C1096       C  0.26656060  0.05418202  0.80611763    -0.06800
C1097       C  0.28105392  0.08350931  0.79155166    -0.18000
C1098       C  0.30299870  0.10481780  0.80937112     0.10400
S1099       S  0.24655847  0.02259527  0.86712047    -0.33000
S1100       S  0.30830330  0.14741434  0.79254908    -0.33000
H1101       H  0.30987733  0.16322200  0.82420823     0.28400
H1102       H  0.21728322  0.02765419  0.84761656     0.28400
H1103       H  0.30758782  0.05872152  0.88159302     0.19000
H1104       H  0.27417923  0.09091935  0.76637073     0.19000
C1105       C  0.27287251  0.97652004  0.80284451    -0.06800
C1106       C  0.30829825  0.97858753  0.79822327    -0.18000
C1107       C  0.33091772  0.95799101  0.81683275     0.10400
C1108       C  0.31782407  0.93574079  0.84240112    -0.06800
C1109       C  0.28198593  0.93604640  0.84766971    -0.18000
C1110       C  0.25968770  0.95385137  0.82709961     0.10400
S1111       S  0.37535210  0.95994633  0.80506564    -0.33000
S1112       S  0.21450906  0.94615439  0.83375704    -0.33000
H1113       H  0.20175287  0.97603500  0.81914037     0.28400
H1114       H  0.37414213  0.99075258  0.78691460     0.28400
H1115       H  0.31807435  0.99536311  0.77873189     0.19000
H1116       H  0.27023349  0.92222641  0.86820026     0.19000
C1117       C  0.03156195  0.69249643  0.22079021    -0.06800
C1118       C  0.05451057  0.70871673  0.19855751    -0.18000
C1119       C  0.07155827  0.69053486  0.17312769     0.10400
C1120       C  0.06548926  0.65522381  0.16956826    -0.06800
C1121       C  0.04264180  0.63897989  0.19191009    -0.18000
C1122       C  0.02643339  0.65691099  0.21789250     0.10400
S1123       S  0.09880624  0.71325609  0.14386490    -0.33000
S1124       S  0.00050413  0.63264835  0.24699317    -0.33000
H1125       H  0.00513368  0.65459927  0.27444437     0.28400
H1126       H  0.09788448  0.74499451  0.16026375     0.28400
H1127       H  0.05817671  0.73603314  0.20053735     0.19000
H1128       H  0.03817609  0.61177166  0.18972150     0.19000
C1129       C  0.78705120  0.70935411  0.05053327    -0.06800
C1130       C  0.82172884  0.71254260  0.04207262    -0.18000
C1131       C  0.84656094  0.69273927  0.05777774     0.10400
C1132       C  0.83705964  0.66985856  0.08385603    -0.06800
C1133       C  0.80275662  0.66855577  0.09406510    -0.18000
C1134       C  0.77758918  0.68691192  0.07700078     0.10400
S1135       S  0.88990572  0.69856107  0.04352605    -0.33000
S1136       S  0.73381992  0.67853827  0.08874362    -0.33000
H1137       H  0.72071579  0.68213443  0.05618167     0.28400
H1138       H  0.90418866  0.69100644  0.07471004     0.28400
H1139       H  0.82955874  0.73042176  0.02266959     0.19000
H1140       H  0.79513561  0.65149651  0.11418436     0.19000
C1141       C  0.95510948  0.69989996  0.21793645    -0.06800
C1142       C  0.96386650  0.70382532  0.18390821    -0.18000
C1143       C  0.94719474  0.68538550  0.15871420     0.10400
C1144       C  0.92004335  0.66301158  0.16734494    -0.06800
C1145       C  0.90937494  0.66113941  0.20101836    -0.18000
C1146       C  0.92676486  0.67883640  0.22638429     0.10400
S1147       S  0.96099372  0.69108553  0.11569659    -0.33000
S1148       S  0.91227690  0.67195063  0.26898568    -0.33000
H1149       H  0.94428489  0.67550660  0.28413764     0.28400
H1150       H  0.98158134  0.72003042  0.12092863     0.28400
H1151       H  0.98449384  0.72098562  0.17712710     0.19000
H1152       H  0.88842042  0.64434899  0.20787995     0.19000
C1153       C  0.78081579  0.46754344  0.80323630    -0.06800
C1154       C  0.78193415  0.47002752  0.83831860    -0.18000
C1155       C  0.80307834  0.44888075  0.85759962     0.10400
C1156       C  0.82361081  0.42361909  0.84164139    -0.06800
C1157       C  0.82206260  0.42144144  0.80628611    -0.18000
C1158       C  0.80162115  0.44303641  0.78715370     0.10400
S1159       S  0.80267337  0.45444485  0.90271542    -0.33000
S1160       S  0.80400992  0.43770532  0.74209989    -0.33000
H1161       H  0.79506050  0.47117756  0.73340763     0.28400
H1162       H  0.78534467  0.48582078  0.90332011     0.28400
H1163       H  0.76535984  0.48812132  0.85079598     0.19000
H1164       H  0.83684765  0.40324300  0.79234182     0.19000
C1165       C  0.06202379  0.66358375  0.83107530    -0.06800
C1166       C  0.03481001  0.64873749  0.81329022    -0.18000
C1167       C  0.01511429  0.66777871  0.79096400     0.10400
C1168       C  0.02050523  0.70334408  0.78824279    -0.06800
C1169       C  0.04838956  0.71783953  0.80479560    -0.18000
C1170       C  0.07075411  0.69800948  0.82337709     0.10400
S1171       S  0.98607409  0.64452435  0.76466390    -0.33000
S1172       S  0.11127731  0.71794311  0.83214180    -0.33000
H1173       H  0.13081481  0.68846993  0.82682723     0.28400
H1174       H  0.99007701  0.66621633  0.73673371     0.28400
H1175       H  0.02990956  0.62160231  0.81526636     0.19000
H1176       H  0.05413310  0.74472500  0.80147305     0.19000
C1177       C  0.82539908  0.66373063  0.93587731    -0.06800
C1178       C  0.82463887  0.69892414  0.92931650    -0.18000
C1179       C  0.80470415  0.72117864  0.94892232     0.10400
C1180       C  0.78330021  0.70800178  0.97479964    -0.06800
C1181       C  0.78328267  0.67268552  0.98061947    -0.18000
C1182       C  0.80426162  0.65058521  0.96213612     0.10400
S1183       S  0.80950259  0.76627622  0.94098791    -0.33000
S1184       S  0.80222921  0.60605791  0.97403561    -0.33000
H1185       H  0.81259673  0.59215312  0.94322831     0.28400
H1186       H  0.80511301  0.77635624  0.97460859     0.28400
H1187       H  0.84114496  0.70944040  0.90989821     0.19000
H1188       H  0.76682785  0.66216545  0.00007660     0.19000
C1189       C  0.90651398  0.67195181  0.84567524    -0.06800
C1190       C  0.89642781  0.67067364  0.81201047    -0.18000
C1191       C  0.91427049  0.68873653  0.78671368     0.10400
C1192       C  0.94304646  0.70920075  0.79504372    -0.06800
C1193       C  0.95171566  0.71195228  0.82911784    -0.18000
C1194       C  0.93385375  0.69390711  0.85427148     0.10400
S1195       S  0.89995473  0.68246611  0.74421382    -0.33000
S1196       S  0.94696263  0.70037412  0.89708415    -0.33000
H1197       H  0.91469037  0.69400514  0.91154521     0.28400
H1198       H  0.93177246  0.68700309  0.72839071     0.28400
H1199       H  0.87568787  0.65384774  0.80502493     0.19000
H1200       H  0.97263634  0.72845491  0.83628117     0.19000
C1201       C  0.77855743  0.54506120  0.80817696    -0.06800
C1202       C  0.76593113  0.56301257  0.83602790    -0.18000
C1203       C  0.78697788  0.58448735  0.85482528     0.10400
C1204       C  0.82192491  0.58759580  0.84639266    -0.06800
C1205       C  0.83439290  0.57015341  0.81809331    -0.18000
C1206       C  0.81301797  0.54972937  0.79848515     0.10400
S1207       S  0.76780764  0.60597759  0.88993117    -0.33000
S1208       S  0.83115993  0.53095551  0.76121442    -0.33000
H1209       H  0.80150736  0.53381504  0.74184230     0.28400
H1210       H  0.78263242  0.63765417  0.88211112     0.28400
H1211       H  0.73928380  0.56036917  0.84307045     0.19000
H1212       H  0.86120096  0.57218879  0.81146607     0.19000
C1213       C  0.20709430  0.53526219  0.81384001    -0.06800
C1214       C  0.17629818  0.54018342  0.79718878    -0.18000
C1215       C  0.15026758  0.55958124  0.81115310     0.10400
C1216       C  0.15632738  0.57793391  0.84105845    -0.06800
C1217       C  0.18743746  0.57342075  0.85775575    -0.18000
C1218       C  0.21263918  0.55175303  0.84474870     0.10400
S1219       S  0.10966587  0.55803731  0.79019129    -0.33000
S1220       S  0.25151816  0.54692912  0.86805610    -0.33000
H1221       H  0.25984554  0.51445830  0.85554636     0.28400
H1222       H  0.09011185  0.55827868  0.81996991     0.28400
H1223       H  0.17256666  0.52913646  0.77273795     0.19000
H1224       H  0.19231365  0.58707986  0.88085111     0.19000
C1225       C  0.20420784  0.45956886  0.80409286    -0.06800
C1226       C  0.21239503  0.44350484  0.83447735    -0.18000
C1227       C  0.18970542  0.42050197  0.85034515     0.10400
C1228       C  0.15681828  0.41519213  0.83679343    -0.06800
C1229       C  0.14875384  0.43181687  0.80648869    -0.18000
C1230       C  0.17238453  0.45232422  0.78923980     0.10400
S1231       S  0.20490903  0.39561606  0.88528646    -0.33000
S1232       S  0.16017185  0.46643062  0.74780735    -0.33000
H1233       H  0.19163400  0.47956063  0.73683102     0.28400
H1234       H  0.23626927  0.41259744  0.88923458     0.28400
H1235       H  0.23742790  0.44788960  0.84491543     0.19000
H1236       H  0.12391976  0.42802334  0.79537404     0.19000
C1237       C  0.78460279  0.54388157  0.20139360    -0.06800
C1238       C  0.77538063  0.55434721  0.16910884    -0.18000
C1239       C  0.79805961  0.57233800  0.14829292     0.10400
C1240       C  0.82997570  0.58289234  0.16109504    -0.06800
C1241       C  0.83849563  0.57410545  0.19413769    -0.18000
C1242       C  0.81642899  0.55435878  0.21426216     0.10400
S1243       S  0.78416008  0.57999442  0.10579601    -0.33000
S1244       S  0.83035710  0.54397186  0.25610934    -0.33000
H1245       H  0.80900766  0.51568614  0.26169132     0.28400
H1246       H  0.81564742  0.58775103  0.09085979     0.28400
H1247       H  0.75029101  0.54804941  0.15981815     0.19000
H1248       H  0.86314254  0.58155086  0.20388063     0.19000
C1249       C  0.77994694  0.46687525  0.20073341    -0.06800
C1250       C  0.80507319  0.44818525  0.21769638    -0.18000
C1251       C  0.82840531  0.42753808  0.20019845     0.10400
C1252       C  0.82713217  0.42579526  0.16486222    -0.06800
C1253       C  0.80199078  0.44454572  0.14806404    -0.18000
C1254       C  0.77730685  0.46327141  0.16560381     0.10400
S1255       S  0.86025857  0.40548061  0.22405804    -0.33000
S1256       S  0.74214571  0.47982389  0.14172747    -0.33000
H1257       H  0.71850248  0.48143187  0.16837381     0.28400
H1258       H  0.88701399  0.41332265  0.20161374     0.28400
H1259       H  0.80676910  0.45003577  0.24476776     0.19000
H1260       H  0.80116938  0.44416560  0.12094128     0.19000
C1261       C  0.01622751  0.19795838  0.70529136    -0.06800
C1262       C  0.03687393  0.17102216  0.71624809    -0.18000
C1263       C  0.06004888  0.15519778  0.69452963     0.10400
C1264       C  0.06198938  0.16559528  0.66065942    -0.06800
C1265       C  0.04040242  0.19175863  0.64942105    -0.18000
C1266       C  0.01820615  0.20855999  0.67146314     0.10400
S1267       S  0.08864653  0.12450986  0.71236923    -0.33000
S1268       S  0.99454021  0.24426100  0.65527307    -0.33000
H1269       H  0.99583807  0.26381879  0.68476632     0.28400
H1270       H  0.11770212  0.13970158  0.69765191     0.28400
H1271       H  0.03597682  0.16334048  0.74240007     0.19000
H1272       H  0.04179842  0.20005118  0.62346764     0.19000
C1273       C  0.90100838  0.16596874  0.65450642    -0.06800
C1274       C  0.89111278  0.19796584  0.66741726    -0.18000
C1275       C  0.91072683  0.21546470  0.69087335     0.10400
C1276       C  0.93849323  0.19887693  0.70636772    -0.06800
C1277       C  0.94696437  0.16585988  0.69542881    -0.18000
C1278       C  0.93072792  0.15080064  0.66797218     0.10400
S1279       S  0.89996186  0.25973896  0.69759250    -0.33000
S1280       S  0.95269265  0.11549888  0.64889866    -0.33000
H1281       H  0.94605652  0.12673570  0.61605017     0.28400
H1282       H  0.93378269  0.27111505  0.70107222     0.28400
H1283       H  0.86840004  0.21051915  0.65860549     0.19000
H1284       H  0.96785795  0.15236731  0.70693003     0.19000
C1285       C  0.94355669  0.27984732  0.80320702    -0.06800
C1286       C  0.95096888  0.31488429  0.80040051    -0.18000
C1287       C  0.93695414  0.33874095  0.82248470     0.10400
C1288       C  0.91168880  0.32846175  0.84586897    -0.06800
C1289       C  0.90210959  0.29391526  0.84687932    -0.18000
C1290       C  0.91892921  0.26930626  0.82729950     0.10400
S1291       S  0.95121260  0.38237698  0.81845508    -0.33000
S1292       S  0.90726967  0.22524195  0.83414741    -0.33000
H1293       H  0.93902367  0.21138391  0.82507669     0.28400
H1294       H  0.94601335  0.39071606  0.85240910     0.28400
H1295       H  0.96811286  0.32389884  0.78089425     0.19000
H1296       H  0.88039518  0.28612603  0.86180675     0.19000
C1297       C  0.01909158  0.28005294  0.79683382    -0.06800
C1298       C  0.03390247  0.30753952  0.77940916    -0.18000
C1299       C  0.05083871  0.33362191  0.79632469     0.10400
C1300       C  0.05670860  0.33024599  0.83126299    -0.06800
C1301       C  0.03899159  0.30415041  0.84876724    -0.18000
C1302       C  0.02131868  0.27857905  0.83198605     0.10400
S1303       S  0.05736848  0.37252653  0.77284162    -0.33000
S1304       S  0.00316613  0.24438646  0.85679429    -0.33000
H1305       H  0.00521195  0.21936450  0.83163630     0.28400
H1306       H  0.05198658  0.39408198  0.80057163     0.28400
H1307       H  0.02972851  0.31003464  0.75264216     0.19000
H1308       H  0.04022142  0.30267877  0.87588469     0.19000
C1309       C  0.64334464  0.17009024  0.08765081    -0.06800
C1310       C  0.65422735  0.20281805  0.09796575    -0.18000
C1311       C  0.67518181  0.22354618  0.07786977     0.10400
C1312       C  0.69036284  0.20993971  0.04853037    -0.06800
C1313       C  0.68154988  0.17645329  0.03928212    -0.18000
C1314       C  0.65642523  0.15774053  0.05668364     0.10400
S1315       S  0.68079489  0.26790269  0.08951516    -0.33000
S1316       S  0.64037864  0.12049085  0.03570297    -0.33000
H1317       H  0.60623835  0.12791018  0.04375058     0.28400
H1318       H  0.66226410  0.26695794  0.11989428     0.28400
H1319       H  0.64627110  0.21284817  0.12193840     0.19000
H1320       H  0.69368889  0.16462136  0.01801082     0.19000
C1321       C  0.65263381  0.17111434  0.92905885    -0.06800
C1322       C  0.63861376  0.20130138  0.94250107    -0.18000
C1323       C  0.65760626  0.22293547  0.96375749     0.10400
C1324       C  0.69175514  0.21454843  0.97145815    -0.06800
C1325       C  0.70539403  0.18442291  0.95867133    -0.18000
C1326       C  0.68553715  0.16158733  0.94054949     0.10400
S1327       S  0.63680498  0.26075013  0.97949609    -0.33000
S1328       S  0.70150751  0.11872633  0.93957301    -0.33000
H1329       H  0.66898649  0.10446108  0.94538304     0.28400
H1330       H  0.66527858  0.27671576  0.99374184     0.28400
H1331       H  0.61279369  0.20832895  0.93655565     0.19000
H1332       H  0.73091965  0.17697333  0.96593073     0.19000
C1333       C  0.83099528  0.33474424  0.08830587    -0.06800
C1334       C  0.84547268  0.30863205  0.06871315    -0.18000
C1335       C  0.82511385  0.28498694  0.05166185     0.10400
C1336       C  0.78931084  0.28893711  0.05198243    -0.06800
C1337       C  0.77480846  0.31426328  0.07239570    -0.18000
C1338       C  0.79518633  0.33693396  0.09054252     0.10400
S1339       S  0.84647852  0.24973072  0.03159073    -0.33000
S1340       S  0.77422882  0.37045184  0.11301343    -0.33000
H1341       H  0.79077522  0.39518765  0.09307732     0.28400
H1342       H  0.81795173  0.22807876  0.02951927     0.28400
H1343       H  0.87297881  0.30629253  0.06721779     0.19000
H1344       H  0.74734704  0.31730749  0.07307729     0.19000
C1345       C  0.78762166  0.29688632  0.97725622    -0.06800
C1346       C  0.81636823  0.28272649  0.96160269    -0.18000
C1347       C  0.83927413  0.30281437  0.94264471     0.10400
C1348       C  0.83140985  0.33748073  0.93617264    -0.06800
C1349       C  0.80356635  0.35192243  0.95370421    -0.18000
C1350       C  0.78183884  0.33223275  0.97415240     0.10400
S1351       S  0.87829038  0.28347653  0.92825127    -0.33000
S1352       S  0.74680263  0.35382413  0.99462885    -0.33000
H1353       H  0.72483464  0.32565736  0.99806751     0.28400
H1354       H  0.87202704  0.25033068  0.94050638     0.28400
H1355       H  0.82082803  0.25564030  0.96440072     0.19000
H1356       H  0.79791127  0.37877947  0.95052440     0.19000
C1357       C  0.19335078  0.70302666  0.04042563    -0.06800
C1358       C  0.20688642  0.68199422  0.06559589    -0.18000
C1359       C  0.18572608  0.66356222  0.08765414     0.10400
C1360       C  0.15010192  0.66483947  0.08357263    -0.06800
C1361       C  0.13649146  0.68712342  0.05947025    -0.18000
C1362       C  0.15763114  0.70706049  0.03874899     0.10400
S1363       S  0.20485642  0.63723794  0.11941281    -0.33000
S1364       S  0.13748255  0.73743664  0.01139295    -0.33000
H1365       H  0.16415123  0.76148286  0.01240703     0.28400
H1366       H  0.23818300  0.65030239  0.11614925     0.28400
H1367       H  0.23430500  0.67959522  0.06753172     0.19000
H1368       H  0.10907826  0.68876379  0.05664269     0.19000
C1369       C  0.14740233  0.65753027  0.92415186    -0.06800
C1370       C  0.15938675  0.68936783  0.91297304    -0.18000
C1371       C  0.17940398  0.71015848  0.93274929     0.10400
C1372       C  0.19361297  0.69730444  0.96274161    -0.06800
C1373       C  0.18392980  0.66408732  0.97307666    -0.18000
C1374       C  0.15947020  0.64492441  0.95514561     0.10400
S1375       S  0.18208059  0.75399245  0.91932283    -0.33000
S1376       S  0.14246890  0.60615252  0.97332113    -0.33000
H1377       H  0.15832025  0.60932940  0.00471635     0.28400
H1378       H  0.17766199  0.76664362  0.95198473     0.28400
H1379       H  0.15147733  0.69948556  0.88905071     0.19000
H1380       H  0.19487877  0.65337179  0.99554054     0.19000
C1381       C  0.28792099  0.78541010  0.03330639    -0.06800
C1382       C  0.28239841  0.82050835  0.03102768    -0.18000
C1383       C  0.30340401  0.84373027  0.04758220     0.10400
C1384       C  0.32927256  0.83153212  0.06931863    -0.06800
C1385       C  0.33522232  0.79598069  0.07038771    -0.18000
C1386       C  0.31514066  0.77305831  0.05244902     0.10400
S1387       S  0.29631025  0.88875588  0.04031526    -0.33000
S1388       S  0.32555956  0.72828040  0.05502241    -0.33000
H1389       H  0.31492348  0.71972131  0.02249520     0.28400
H1390       H  0.27542337  0.88521365  0.01197990     0.28400
H1391       H  0.26141309  0.82977092  0.01622409     0.19000
H1392       H  0.35596684  0.78521360  0.08426728     0.19000
C1393       C  0.28517327  0.78556210  0.95982200    -0.06800
C1394       C  0.32086159  0.78342080  0.95836550    -0.18000
C1395       C  0.34068573  0.80867829  0.94203113     0.10400
C1396       C  0.32440238  0.83571250  0.92454593    -0.06800
C1397       C  0.28871042  0.83862177  0.92847398    -0.18000
C1398       C  0.26923207  0.81438327  0.94575900     0.10400
S1399       S  0.38652165  0.80705356  0.94590727    -0.33000
S1400       S  0.22441519  0.82379440  0.95073029    -0.33000
H1401       H  0.21833806  0.80529997  0.98038842     0.28400
H1402       H  0.38784358  0.77936467  0.96838281     0.28400
H1403       H  0.33317641  0.76243613  0.97109688     0.19000
H1404       H  0.27538062  0.86100154  0.91991967     0.19000
C1405       C  0.15963071  0.43494298  0.16864400    -0.06800
C1406       C  0.19545757  0.43245694  0.16518887    -0.18000
C1407       C  0.21780514  0.45091781  0.18515289     0.10400
C1408       C  0.20475215  0.47486932  0.20813485    -0.06800
C1409       C  0.16934119  0.47970728  0.21026047    -0.18000
C1410       C  0.14667916  0.46047238  0.19059678     0.10400
S1411       S  0.26279145  0.44240417  0.17925789    -0.33000
S1412       S  0.10159346  0.46983662  0.19325120    -0.33000
H1413       H  0.10332232  0.49365116  0.21955566     0.28400
H1414       H  0.27546379  0.47368722  0.19081331     0.28400
H1415       H  0.20721021  0.41696162  0.14611506     0.19000
H1416       H  0.15951430  0.49863659  0.22753268     0.19000
C1417       C  0.15724303  0.58108034  0.16423234    -0.06800
C1418       C  0.18251181  0.56028579  0.14991143    -0.18000
C1419       C  0.20847135  0.54643996  0.16935805     0.10400
C1420       C  0.20778575  0.55101917  0.20449939    -0.06800
C1421       C  0.18358250  0.57316908  0.21862158    -0.18000
C1422       C  0.15857483  0.58844637  0.19886676     0.10400
S1423       S  0.24255422  0.52500339  0.14756479    -0.33000
S1424       S  0.12761947  0.61473719  0.21980650    -0.33000
H1425       H  0.10005700  0.59794717  0.20468314     0.28400
H1426       H  0.26745756  0.53239044  0.17168785     0.28400
H1427       H  0.18262985  0.55572522  0.12308001     0.19000
H1428       H  0.18319129  0.57733323  0.24551336     0.19000
C1429       C  0.19634927  0.22167074  0.53272537    -0.06800
C1430       C  0.16507566  0.23366758  0.54479587    -0.18000
C1431       C  0.14149604  0.21167390  0.56024608     0.10400
C1432       C  0.15179159  0.17816084  0.56932840    -0.06800
C1433       C  0.18281403  0.16595225  0.55574046    -0.18000
C1434       C  0.20507190  0.18722019  0.53768766     0.10400
S1435       S  0.09754050  0.22553624  0.56307139    -0.33000
S1436       S  0.24419209  0.16880377  0.52195698    -0.33000
H1437       H  0.26358788  0.19900883  0.52148680     0.28400
H1438       H  0.10265227  0.25926694  0.55191504     0.28400
H1439       H  0.15830381  0.25997311  0.54001137     0.19000
H1440       H  0.18993998  0.13950821  0.55886777     0.19000
C1441       C  0.16396234  0.16891299  0.42111850    -0.06800
C1442       C  0.14649111  0.19384918  0.44001485    -0.18000
C1443       C  0.16367611  0.21992500  0.45669442     0.10400
C1444       C  0.19955623  0.21923405  0.45813891    -0.06800
C1445       C  0.21730205  0.19546358  0.43861308    -0.18000
C1446       C  0.20011567  0.17236852  0.41807827     0.10400
S1447       S  0.13827514  0.25508494  0.47178988    -0.33000
S1448       S  0.22587176  0.15454820  0.38485072    -0.33000
H1449       H  0.20141547  0.16080252  0.35996370     0.28400
H1450       H  0.16448558  0.27962085  0.47198375     0.28400
H1451       H  0.11886484  0.19441923  0.43989375     0.19000
H1452       H  0.24492219  0.19670027  0.43745195     0.19000
C1453       C  0.55520511  0.16750354  0.17995083    -0.06800
C1454       C  0.56177280  0.16906292  0.21478243    -0.18000
C1455       C  0.54483382  0.19169047  0.23615366     0.12800
C1456       C  0.52036406  0.21423131  0.22301544    -0.06800
C1457       C  0.51385665  0.21354426  0.18847068    -0.18000
C1458       C  0.53040821  0.19043304  0.16694486     0.10400
S1459       S  0.55551270  0.18968653  0.28020274    -0.33000
S1460       S  0.52016793  0.19188799  0.12272329    -0.33000
H1461       H  0.49202624  0.21392821  0.12524916     0.28400
H1462       H  0.52348367  0.19927041  0.29298805     0.28400
H1463       H  0.58061220  0.15329225  0.22648188     0.19000
H1464       H  0.49558297  0.23139279  0.17835890     0.19000
C1465       C  0.40807719  0.17287715  0.17763074    -0.06800
C1466       C  0.43279826  0.15847629  0.19879096    -0.18000
C1467       C  0.44872748  0.17776320  0.22387822     0.10400
C1468       C  0.44382490  0.21353242  0.22508502    -0.06800
C1469       C  0.41795194  0.22750783  0.20544095    -0.18000
C1470       C  0.39785638  0.20707263  0.18481570     0.10400
S1471       S  0.47156474  0.15468780  0.25562774    -0.33000
S1472       S  0.35676508  0.22499048  0.17516486    -0.33000
H1473       H  0.33885303  0.19415456  0.17980260     0.28400
H1474       H  0.46562442  0.17875319  0.28114322     0.28400
H1475       H  0.43813644  0.13142001  0.19720920     0.19000
H1476       H  0.41173342  0.25431773  0.20786701     0.19000
C1477       C  0.02899156  0.29453443  0.20386064    -0.06800
C1478       C  0.01886468  0.30455145  0.17147687    -0.18000
C1479       C  0.03530850  0.33153672  0.15443684     0.10400
C1480       C  0.06532471  0.34607341  0.16797734    -0.06800
C1481       C  0.07582645  0.33483172  0.19977755    -0.18000
C1482       C  0.05684128  0.31162755  0.21863960     0.10400
S1483       S  0.01487987  0.34776734  0.11746141    -0.33000
S1484       S  0.06771418  0.30631083  0.26234115    -0.33000
H1485       H  0.08978002  0.33454728  0.26495981     0.28400
H1486       H  0.02414028  0.38190414  0.12351977     0.28400
H1487       H  0.99719097  0.29227282  0.15989228     0.19000
H1488       H  0.09923239  0.34418377  0.21051491     0.19000
C1489       C  0.96267937  0.19261594  0.28745406    -0.06800
C1490       C  0.96759952  0.19607488  0.32211702    -0.18000
C1491       C  0.94885187  0.17675600  0.34522669     0.10400
C1492       C  0.92250312  0.15562623  0.33357902    -0.06800
C1493       C  0.91738125  0.15210615  0.29904661    -0.18000
C1494       C  0.93820728  0.16907938  0.27583839     0.10400
S1495       S  0.95705473  0.18100184  0.38959063    -0.33000
S1496       S  0.93097949  0.16123676  0.23187874    -0.33000
H1497       H  0.96458819  0.16844554  0.22137539     0.28400
H1498       H  0.98765642  0.19962515  0.38617090     0.28400
H1499       H  0.98462596  0.21528805  0.33142664     0.19000
H1500       H  0.89566110  0.13793462  0.29005848     0.19000
C1501       C  0.95116630  0.29140067  0.21090862    -0.06800
C1502       C  0.92625970  0.27926580  0.18876672    -0.18000
C1503       C  0.90548665  0.30171958  0.17060408     0.10400
C1504       C  0.91063146  0.33728514  0.17339626    -0.06800
C1505       C  0.93417133  0.34935406  0.19705085    -0.18000
C1506       C  0.95328944  0.32690363  0.21678439     0.10400
S1507       S  0.87421134  0.28429692  0.14257822    -0.33000
S1508       S  0.97938967  0.34518861  0.24920175    -0.33000
H1509       H  0.97981308  0.31608938  0.26990878     0.28400
H1510       H  0.87623317  0.25027007  0.15368403     0.28400
H1511       H  0.92387477  0.25201279  0.18493136     0.19000
H1512       H  0.93790903  0.37658238  0.19998730     0.19000
C1513       C  0.03823553  0.19918701  0.28413085    -0.06800
C1514       C  0.04855036  0.16585849  0.27613136    -0.18000
C1515       C  0.06987695  0.14706571  0.29772911     0.10400
C1516       C  0.07981443  0.16140601  0.32876888    -0.06800
C1517       C  0.06872373  0.19460383  0.33656746    -0.18000
C1518       C  0.04943710  0.21395380  0.31444656     0.10400
S1519       S  0.08622177  0.10643165  0.28390580    -0.33000
S1520       S  0.03999400  0.25715333  0.32759263    -0.33000
H1521       H  0.01399341  0.26483186  0.30490459     0.28400
H1522       H  0.06548744  0.10318261  0.25545608     0.28400
H1523       H  0.04050401  0.15497678  0.25252394     0.19000
H1524       H  0.07520676  0.20601276  0.36042140     0.19000
C1525       C  0.32489793  0.92580628  0.15355172    -0.06800
C1526       C  0.32492175  0.91779360  0.18777837    -0.18000
C1527       C  0.30348106  0.93457820  0.21050958     0.10400
C1528       C  0.28011317  0.95919206  0.19849147    -0.06800
C1529       C  0.27984338  0.96672344  0.16397566    -0.18000
C1530       C  0.30236292  0.95092725  0.14160543     0.10400
S1531       S  0.30739363  0.92257997  0.25411052    -0.33000
S1532       S  0.30025707  0.96322413  0.09802517    -0.33000
H1533       H  0.33397406  0.95450143  0.08977142     0.28400
H1534       H  0.29649272  0.95359223  0.26783887     0.28400
H1535       H  0.34079787  0.89733467  0.19677423     0.19000
H1536       H  0.26166897  0.98490135  0.15424364     0.19000
C1537       C  0.19074038  0.02952012  0.29185508    -0.06800
C1538       C  0.15617489  0.02301313  0.29961251    -0.18000
C1539       C  0.13881618  0.04133838  0.32489165     0.10400
C1540       C  0.15485984  0.06977422  0.34010938    -0.06800
C1541       C  0.18904039  0.07673008  0.33087635    -0.18000
C1542       C  0.20759710  0.05578838  0.30934206     0.10400
S1543       S  0.09763806  0.02537091  0.33773482    -0.33000
S1544       S  0.25328247  0.06245664  0.30578291    -0.33000
H1545       H  0.25641277  0.08747310  0.33084757     0.28400
H1546       H  0.10181458  0.03377998  0.37176250     0.28400
H1547       H  0.14261427  0.00321904  0.28639247     0.19000
H1548       H  0.20195814  0.09887067  0.34055676     0.19000
C1549       C  0.27701215  0.03535178  0.20140594    -0.06800
C1550       C  0.26510903  0.05534798  0.17463046    -0.18000
C1551       C  0.28693178  0.07777912  0.15704092     0.10400
C1552       C  0.32176905  0.07979096  0.16564774    -0.06800
C1553       C  0.33368711  0.05919075  0.19190985    -0.18000
C1554       C  0.31177920  0.03782352  0.21027191     0.10400
S1555       S  0.26835461  0.10488922  0.12571827    -0.33000
S1556       S  0.32971284  0.01609078  0.24586629    -0.33000
H1557       H  0.29995364  0.01649803  0.26570854     0.28400
H1558       H  0.28471767  0.13450823  0.13738079     0.28400
H1559       H  0.23840459  0.05408137  0.16796077     0.19000
H1560       H  0.36024326  0.06079857  0.19910661     0.19000
C1561       C  0.15110810  0.91424473  0.33473012    -0.06800
C1562       C  0.18363744  0.92565679  0.34407486    -0.18000
C1563       C  0.20423733  0.94488485  0.32203538     0.10400
C1564       C  0.19240660  0.95214112  0.28934100    -0.06800
C1565       C  0.16086163  0.93883596  0.27931863    -0.18000
C1566       C  0.13953100  0.92122617  0.30187695     0.10400
S1567       S  0.24458876  0.95991546  0.33800503    -0.33000
S1568       S  0.09748959  0.91028977  0.28704604    -0.33000
H1569       H  0.08136548  0.90422752  0.31799648     0.28400
H1570       H  0.25640000  0.97794426  0.30979811     0.28400
H1571       H  0.19233806  0.92103106  0.36943291     0.19000
H1572       H  0.15182507  0.94418301  0.25421986     0.19000
C1573       C  0.14907645  0.32860727  0.91779158    -0.06800
C1574       C  0.16380622  0.34541000  0.94513947    -0.18000
C1575       C  0.18711987  0.32869696  0.96593562     0.10400
C1576       C  0.19029265  0.29267288  0.96460834    -0.06800
C1577       C  0.17473892  0.27580721  0.93772952    -0.18000
C1578       C  0.15819349  0.29383725  0.91250546     0.10400
S1579       S  0.21722887  0.35584740  0.98624609    -0.33000
S1580       S  0.15643292  0.27233824  0.87244925    -0.33000
H1581       H  0.16188834  0.30220818  0.85341236     0.28400
H1582       H  0.24512711  0.33485366  0.97811583     0.28400
H1583       H  0.15972523  0.37241365  0.94875649     0.19000
H1584       H  0.17880055  0.24867927  0.93428681     0.19000
C1585       C  0.27578549  0.20162889  0.04432440    -0.06800
C1586       C  0.28440935  0.16770159  0.03576702    -0.18000
C1587       C  0.30997722  0.14971520  0.05321576     0.10400
C1588       C  0.32366704  0.16362790  0.08309547    -0.06800
C1589       C  0.31166088  0.19578956  0.09322727    -0.18000
C1590       C  0.29125574  0.21572077  0.07299712     0.10400
S1591       S  0.32589873  0.11139763  0.03402529    -0.33000
S1592       S  0.29064339  0.26030750  0.08315798    -0.33000
H1593       H  0.29888268  0.26983243  0.04998273     0.28400
H1594       H  0.36011021  0.11851331  0.04176502     0.28400
H1595       H  0.27286069  0.15584455  0.01413790     0.19000
H1596       H  0.31986465  0.20707716  0.11646810     0.19000
C1597       C  0.18866576  0.29299742  0.04236552    -0.06800
C1598       C  0.15434952  0.28599598  0.05048465    -0.18000
C1599       C  0.13608875  0.30635477  0.07365173     0.10400
C1600       C  0.15132666  0.33645209  0.08664459    -0.06800
C1601       C  0.18530993  0.34353947  0.07697485    -0.18000
C1602       C  0.20464316  0.32111726  0.05782220     0.10400
S1603       S  0.09550794  0.29016152  0.08797242    -0.33000
S1604       S  0.24996226  0.32997036  0.05625035    -0.33000
H1605       H  0.25875027  0.30874863  0.02934492     0.28400
H1606       H  0.10059586  0.29982998  0.12153319     0.28400
H1607       H  0.14247591  0.26321983  0.04048597     0.19000
H1608       H  0.19794953  0.36661287  0.08512583     0.19000
C1609       C  0.27893905  0.20371814  0.96778565    -0.06800
C1610       C  0.31416555  0.20664861  0.97280910    -0.18000
C1611       C  0.33734960  0.18867832  0.95262526     0.10400
C1612       C  0.32518530  0.16869623  0.92583889    -0.06800
C1613       C  0.29004018  0.16475106  0.92145445    -0.18000
C1614       C  0.26678388  0.18164427  0.94238979     0.10400
S1615       S  0.38233456  0.19080756  0.96156564    -0.33000
S1616       S  0.22200342  0.17432538  0.93510517    -0.33000
H1617       H  0.21140755  0.17930233  0.96854215     0.28400
H1618       H  0.37940937  0.20953747  0.99153345     0.28400
H1619       H  0.32341868  0.22329496  0.99240780     0.19000
H1620       H  0.28069347  0.14900626  0.90114469     0.19000
C1621       C  0.56498649  0.69089966  0.66966367    -0.06800
C1622       C  0.57061552  0.72461548  0.65915443    -0.18000
C1623       C  0.55174118  0.75167808  0.67260144     0.10400
C1624       C  0.52827051  0.74536650  0.69901076    -0.06800
C1625       C  0.52309417  0.71166730  0.71004419    -0.18000
C1626       C  0.54028144  0.68440014  0.69498210     0.10400
S1627       S  0.55848703  0.79353439  0.65479845    -0.33000
S1628       S  0.52939805  0.64194841  0.70910368    -0.33000
H1629       H  0.53571026  0.62599886  0.67808891     0.28400
H1630       H  0.52505016  0.80522631  0.66040385     0.28400
H1631       H  0.59051087  0.73009193  0.64104587     0.19000
H1632       H  0.50505461  0.70653039  0.73021718     0.19000
C1633       C  0.64957638  0.59629896  0.68525905    -0.06800
C1634       C  0.63276191  0.56919065  0.70212424    -0.18000
C1635       C  0.65015197  0.54677640  0.72343546     0.10400
C1636       C  0.68592776  0.54972627  0.72648647    -0.06800
C1637       C  0.70232275  0.57767935  0.71110776    -0.18000
C1638       C  0.68428014  0.60233158  0.69336800     0.10400
S1639       S  0.62468349  0.51686741  0.74738358    -0.33000
S1640       S  0.70606600  0.64267242  0.68799771    -0.33000
H1641       H  0.67652635  0.66257913  0.69178583     0.28400
H1642       H  0.64699856  0.51446584  0.77468998     0.28400
H1643       H  0.60549177  0.56589845  0.69937373     0.19000
H1644       H  0.72938410  0.58168999  0.71489456     0.19000
C1645       C  0.64783851  0.67496153  0.58158582    -0.06800
C1646       C  0.67992930  0.66253732  0.57078455    -0.18000
C1647       C  0.70205479  0.68171656  0.55058630     0.10400
C1648       C  0.69042677  0.71227541  0.53603174    -0.06800
C1649       C  0.65699979  0.72282445  0.54266083    -0.18000
C1650       C  0.63574802  0.70520925  0.56563457     0.10400
S1651       S  0.74539392  0.66629984  0.54731638    -0.33000
S1652       S  0.59420646  0.72312696  0.57346588    -0.33000
H1653       H  0.60080140  0.75597468  0.56059275     0.28400
H1654       H  0.76072125  0.69432290  0.53127571     0.28400
H1655       H  0.68918821  0.63813102  0.57935333     0.19000
H1656       H  0.64819879  0.74611984  0.53096307     0.19000
C1657       C  0.41837083  0.35517530  0.66182113    -0.06800
C1658       C  0.41808462  0.36476985  0.69572823    -0.18000
C1659       C  0.43683492  0.34685657  0.71976901     0.10400
C1660       C  0.45678015  0.31857166  0.70987988    -0.06800
C1661       C  0.45866648  0.31006643  0.67574370    -0.18000
C1662       C  0.44042419  0.32848567  0.65164940     0.10400
S1663       S  0.43461723  0.36164032  0.76257787    -0.33000
S1664       S  0.44825100  0.31815169  0.60826599    -0.33000
H1665       H  0.44278996  0.35141840  0.59611363     0.28400
H1666       H  0.46757630  0.35134760  0.77167944     0.28400
H1667       H  0.40297104  0.38626633  0.70376996     0.19000
H1668       H  0.47488549  0.28919198  0.66778149     0.19000
C1669       C  0.33498149  0.43643194  0.67013998    -0.06800
C1670       C  0.33585112  0.42382193  0.70295876    -0.18000
C1671       C  0.31873933  0.44030891  0.72905866     0.10400
C1672       C  0.29905475  0.46964641  0.72199912    -0.06800
C1673       C  0.29736335  0.48169199  0.68886603    -0.18000
C1674       C  0.31545305  0.46574784  0.66298807     0.10400
S1675       S  0.32304367  0.42228302  0.77057631    -0.33000
S1676       S  0.31113968  0.48311017  0.62126580    -0.33000
H1677       H  0.34243028  0.47123328  0.60874800     0.28400
H1678       H  0.31866854  0.45288442  0.78835939     0.28400
H1679       H  0.34879544  0.40011949  0.70817871     0.19000
H1680       H  0.28153614  0.50350508  0.68304872     0.19000
C1681       C  0.32549760  0.35460446  0.57268038    -0.06800
C1682       C  0.29068652  0.36304016  0.56897284    -0.18000
C1683       C  0.26871832  0.34360458  0.54924151     0.10400
C1684       C  0.28156732  0.31484939  0.53228381    -0.06800
C1685       C  0.31643860  0.30763977  0.53376992    -0.18000
C1686       C  0.33877836  0.32818190  0.55211599     0.10400
S1687       S  0.22481797  0.35745752  0.54711127    -0.33000
S1688       S  0.38403815  0.32098897  0.54735281    -0.33000
H1689       H  0.38220961  0.29772600  0.52057342     0.28400
H1690       H  0.21302806  0.33504223  0.52241366     0.28400
H1691       H  0.28007009  0.38553823  0.58047647     0.19000
H1692       H  0.32621072  0.28574203  0.52034385     0.19000
C1693       C  0.64432900  0.44049440  0.33321948    -0.06800
C1694       C  0.62970757  0.46091272  0.30824283    -0.18000
C1695       C  0.64985529  0.47582848  0.28288271     0.10400
C1696       C  0.68558880  0.47198274  0.28382040    -0.06800
C1697       C  0.70007079  0.45105436  0.30841474    -0.18000
C1698       C  0.67981364  0.43502996  0.33291775     0.10400
S1699       S  0.62979949  0.49859019  0.24897133    -0.33000
S1700       S  0.69986217  0.40954411  0.36478294    -0.33000
H1701       H  0.73356651  0.41287197  0.35282155     0.28400
H1702       H  0.59593453  0.49391940  0.26003032     0.28400
H1703       H  0.60238235  0.46479722  0.30852372     0.19000
H1704       H  0.72752014  0.44821737  0.30894481     0.19000
C1705       C  0.64765180  0.35509413  0.41451966    -0.06800
C1706       C  0.67567024  0.36609118  0.43340075    -0.18000
C1707       C  0.69756562  0.34264123  0.44859823     0.10400
C1708       C  0.68910264  0.30768845  0.44818169    -0.06800
C1709       C  0.66211740  0.29648768  0.42815141    -0.18000
C1710       C  0.64192274  0.31977198  0.41049706     0.10400
S1711       S  0.73745846  0.35716293  0.46582382    -0.33000
S1712       S  0.60849489  0.30393325  0.38403080    -0.33000
H1713       H  0.61344633  0.26897527  0.39030257     0.28400
H1714       H  0.73385671  0.39177400  0.45716465     0.28400
H1715       H  0.68060165  0.39317703  0.43577693     0.19000
H1716       H  0.65679560  0.26940317  0.42667165     0.19000
C1717       C  0.55630598  0.36026740  0.34321213    -0.06800
C1718       C  0.53641500  0.33527137  0.35947501    -0.18000
C1719       C  0.52027849  0.30927471  0.34144200     0.10400
C1720       C  0.52181826  0.30939625  0.30596565    -0.06800
C1721       C  0.54125243  0.33473935  0.28962449    -0.18000
C1722       C  0.55847705  0.36010940  0.30784781     0.10400
S1723       S  0.49943087  0.27596226  0.36528208    -0.33000
S1724       S  0.58131660  0.39329588  0.28566054    -0.33000
H1725       H  0.57040328  0.38456464  0.25325010     0.28400
H1726       H  0.50427240  0.25017239  0.34123832     0.28400
H1727       H  0.53484291  0.33504215  0.38665558     0.19000
H1728       H  0.54214384  0.33506411  0.26245426     0.19000
C1729       C  0.45006892  0.73450478  0.30655104    -0.06800
C1730       C  0.45661231  0.69967066  0.30162629    -0.18000
C1731       C  0.44176690  0.67486113  0.32230367     0.10400
C1732       C  0.41758218  0.68450429  0.34692181    -0.06800
C1733       C  0.41018683  0.71920178  0.35128158    -0.18000
C1734       C  0.42664503  0.74433965  0.33190800     0.10400
S1735       S  0.45534993  0.63137265  0.31651334    -0.33000
S1736       S  0.41656799  0.78830030  0.34076781    -0.33000
H1737       H  0.44906368  0.80148881  0.33292469     0.28400
H1738       H  0.44946048  0.62113866  0.34993221     0.28400
H1739       H  0.47457624  0.69183495  0.28232673     0.19000
H1740       H  0.39094302  0.72676574  0.36930687     0.19000
C1741       C  0.33950572  0.67956428  0.43686663    -0.06800
C1742       C  0.34627247  0.71474903  0.43724315    -0.18000
C1743       C  0.32726400  0.73684009  0.45784879     0.10400
C1744       C  0.30020743  0.72363733  0.47778110    -0.06800
C1745       C  0.29500851  0.68825274  0.47866655    -0.18000
C1746       C  0.31518505  0.66614128  0.45974905     0.10400
S1747       S  0.33812615  0.78157601  0.45695722    -0.33000
S1748       S  0.30847920  0.62095810  0.46585962    -0.33000
H1749       H  0.34225495  0.61169510  0.45818979     0.28400
H1750       H  0.32671046  0.78866373  0.48976775     0.28400
H1751       H  0.36556760  0.72528441  0.42068793     0.19000
H1752       H  0.27446859  0.67760622  0.49351497     0.19000
C1753       C  0.33008149  0.59155570  0.34239087    -0.06800
C1754       C  0.29406366  0.59239417  0.34353010    -0.18000
C1755       C  0.27420830  0.57280060  0.32194203     0.10400
C1756       C  0.29015283  0.55188347  0.29789203    -0.06800
C1757       C  0.32571982  0.55005760  0.29673704    -0.18000
C1758       C  0.34587016  0.56928222  0.31868143     0.10400
S1759       S  0.22842062  0.57554471  0.32665142    -0.33000
S1760       S  0.39172739  0.56487064  0.31559722    -0.33000
H1761       H  0.39267595  0.54212372  0.28835474     0.28400
H1762       H  0.22105893  0.54199657  0.31654712     0.28400
H1763       H  0.28032284  0.60800446  0.36106876     0.19000
H1764       H  0.33761477  0.53351104  0.27836547     0.19000
C1765       C  0.65280280  0.67703974  0.41673301    -0.06800
C1766       C  0.68231733  0.66291632  0.43086906    -0.18000
C1767       C  0.70381077  0.68197261  0.45135278     0.10400
C1768       C  0.69438421  0.71535784  0.46072078    -0.06800
C1769       C  0.66450452  0.72945940  0.44746339    -0.18000
C1770       C  0.64424702  0.71112910  0.42482376     0.10400
S1771       S  0.74343380  0.66219184  0.46293039    -0.33000
S1772       S  0.60996022  0.73374969  0.40506215    -0.33000
H1773       H  0.61655208  0.71992358  0.37313817     0.28400
H1774       H  0.76208263  0.69218477  0.46826304     0.28400
H1775       H  0.68939073  0.63684887  0.42516051     0.19000
H1776       H  0.65776352  0.75551088  0.45366256     0.19000
C1777       C  0.56259585  0.68335438  0.34196318    -0.06800
C1778       C  0.57181745  0.69328973  0.30917659    -0.18000
C1779       C  0.55228181  0.71572312  0.29071229     0.10400
C1780       C  0.52643535  0.73495267  0.30654918    -0.06800
C1781       C  0.51928623  0.72812288  0.34071010    -0.18000
C1782       C  0.53521495  0.70092301  0.35767844     0.10400
S1783       S  0.55907860  0.71432701  0.24614914    -0.33000
S1784       S  0.51688710  0.68812092  0.39729243    -0.33000
H1785       H  0.52079376  0.65302201  0.39109924     0.28400
H1786       H  0.52402058  0.71487904  0.23884509     0.28400
H1787       H  0.59339518  0.68185116  0.29643433     0.19000
H1788       H  0.49940355  0.74228586  0.35348918     0.19000
C1789       C  0.64648001  0.58577220  0.32935610    -0.06800
C1790       C  0.64828635  0.59319870  0.29458616    -0.18000
C1791       C  0.66872748  0.57452051  0.27236259     0.10400
C1792       C  0.68953399  0.54809766  0.28470797    -0.06800
C1793       C  0.68972402  0.54185060  0.31939541    -0.18000
C1794       C  0.66877640  0.56015686  0.34174758     0.10400
S1795       S  0.66687706  0.58611784  0.22847957    -0.33000
S1796       S  0.67314865  0.55162683  0.38612402    -0.33000
H1797       H  0.68855841  0.51941014  0.38279316     0.28400
H1798       H  0.67295116  0.55332739  0.21561368     0.28400
H1799       H  0.63475042  0.61446110  0.28397684     0.19000
H1800       H  0.70704430  0.52286669  0.32911316     0.19000
C1801       C  0.32862776  0.44308632  0.34939258    -0.06800
C1802       C  0.33364215  0.43613566  0.31521989    -0.18000
C1803       C  0.31488216  0.45313551  0.29065917     0.10400
C1804       C  0.28916610  0.47636263  0.30040327    -0.06800
C1805       C  0.28302597  0.48198005  0.33469246    -0.18000
C1806       C  0.30273277  0.46613662  0.35925334     0.10400
S1807       S  0.32659300  0.44575004  0.24745747    -0.33000
S1808       S  0.29341320  0.47700960  0.40239960    -0.33000
H1809       H  0.30850797  0.44855449  0.41745623     0.28400
H1810       H  0.32076131  0.47939992  0.23665816     0.28400
H1811       H  0.35377708  0.41887824  0.30751187     0.19000
H1812       H  0.26305080  0.49938300  0.34239172     0.19000
C1813       C  0.33241722  0.35710616  0.42820111    -0.06800
C1814       C  0.29854122  0.36743446  0.43281604    -0.18000
C1815       C  0.27448138  0.34594573  0.44805131     0.10400
C1816       C  0.28440830  0.31301412  0.45837344    -0.06800
C1817       C  0.31788749  0.30207739  0.45235038    -0.18000
C1818       C  0.34233168  0.32401870  0.43831720     0.10400
S1819       S  0.23208172  0.36267094  0.45427969    -0.33000
S1820       S  0.38538594  0.30792813  0.43518208    -0.33000
H1821       H  0.40243541  0.33832936  0.42705515     0.28400
H1822       H  0.21477538  0.33134613  0.45653121     0.28400
H1823       H  0.29085646  0.39270823  0.42504041     0.19000
H1824       H  0.32539239  0.27666335  0.46005922     0.19000
C1825       C  0.41293545  0.36181624  0.34462314    -0.06800
C1826       C  0.40273678  0.32758461  0.34712806    -0.18000
C1827       C  0.41936134  0.30196699  0.32891591     0.10400
C1828       C  0.44563646  0.31095103  0.30583299    -0.06800
C1829       C  0.45347923  0.34571110  0.30116882    -0.18000
C1830       C  0.43800735  0.37104394  0.32062228     0.10400
S1831       S  0.40679789  0.25851809  0.33803590    -0.33000
S1832       S  0.45097098  0.41462425  0.31307299    -0.33000
H1833       H  0.41934897  0.42925147  0.32151869     0.28400
H1834       H  0.43886085  0.24373776  0.33216858     0.28400
H1835       H  0.38284019  0.32043919  0.36478843     0.19000
H1836       H  0.47214848  0.35323488  0.28235133     0.19000
C1837       C  0.65611391  0.43484228  0.66693773    -0.06800
C1838       C  0.65141159  0.42576291  0.70066771    -0.18000
C1839       C  0.66784356  0.44387664  0.72631388     0.10400
C1840       C  0.68902735  0.47209526  0.71801382    -0.06800
C1841       C  0.69308080  0.48141300  0.68414957    -0.18000
C1842       C  0.67669872  0.46322841  0.65860449     0.10400
S1843       S  0.66070505  0.43141895  0.76953586    -0.33000
S1844       S  0.68164258  0.47666738  0.61541779    -0.33000
H1845       H  0.70185982  0.50563819  0.62170923     0.28400
H1846       H  0.64225409  0.40136736  0.76288981     0.28400
H1847       H  0.63521720  0.40413132  0.70676207     0.19000
H1848       H  0.70962638  0.50265757  0.67772470     0.19000
C1849       C  0.57194572  0.35562821  0.66304248    -0.06800
C1850       C  0.58177760  0.32259193  0.67317460    -0.18000
C1851       C  0.56188408  0.30290202  0.69502320     0.10400
C1852       C  0.53378292  0.31781500  0.71188820    -0.06800
C1853       C  0.52581560  0.35201397  0.70438347    -0.18000
C1854       C  0.54262594  0.36989210  0.67849644     0.10400
S1855       S  0.57263270  0.25821860  0.69782267    -0.33000
S1856       S  0.52263629  0.40850914  0.66427758    -0.33000
H1857       H  0.52893436  0.40167882  0.63017375     0.28400
H1858       H  0.53854785  0.24689849  0.69816599     0.28400
H1859       H  0.60460613  0.31094856  0.66307722     0.19000
H1860       H  0.50504191  0.36445241  0.71742698     0.19000
C1861       C  0.65633627  0.35349706  0.56632771    -0.06800
C1862       C  0.63770653  0.32762903  0.54973912    -0.18000
C1863       C  0.65372359  0.30390398  0.52864916     0.10400
C1864       C  0.68906257  0.30617829  0.52340705    -0.06800
C1865       C  0.70744549  0.33279345  0.53807912    -0.18000
C1866       C  0.69113153  0.35803075  0.55707417     0.10400
S1867       S  0.62940956  0.26970623  0.51002745    -0.33000
S1868       S  0.71397120  0.39756381  0.56388971    -0.33000
H1869       H  0.74321644  0.38978035  0.54472157     0.28400
H1870       H  0.59720747  0.28016492  0.52185207     0.28400
H1871       H  0.61046173  0.32559666  0.55372776     0.19000
H1872       H  0.73463253  0.33447450  0.53341548     0.19000
C1873       C  0.41637864  0.69202882  0.67138108    -0.06800
C1874       C  0.40600004  0.70590529  0.70245049    -0.18000
C1875       C  0.42464488  0.73130994  0.71847026     0.10400
C1876       C  0.45165612  0.74791994  0.70112857    -0.06800
C1877       C  0.45951507  0.73699694  0.66831318    -0.18000
C1878       C  0.44439042  0.70763897  0.65451249     0.10400
S1879       S  0.41408135  0.73848961  0.76210549    -0.33000
S1880       S  0.46390273  0.68915160  0.61759811    -0.33000
H1881       H  0.49215702  0.71130673  0.61534420     0.28400
H1882       H  0.44818694  0.74104847  0.77251567     0.28400
H1883       H  0.38392290  0.69586510  0.71564682     0.19000
H1884       H  0.47931856  0.75017096  0.65430912     0.19000
C1885       C  0.33075246  0.67879943  0.59454195    -0.06800
C1886       C  0.29933916  0.66696599  0.58196359    -0.18000
C1887       C  0.27840739  0.68759921  0.56229865     0.10400
C1888       C  0.29042113  0.71993958  0.55181580    -0.06800
C1889       C  0.32214659  0.73148816  0.56292055    -0.18000
C1890       C  0.34162720  0.71212496  0.58517946     0.10400
S1891       S  0.23640218  0.67110490  0.55280441    -0.33000
S1892       S  0.37724437  0.73369855  0.60369263    -0.33000
H1893       H  0.36623930  0.72572020  0.63646365     0.28400
H1894       H  0.22619429  0.69570124  0.52936368     0.28400
H1895       H  0.29032372  0.64153976  0.58800578     0.19000
H1896       H  0.33080540  0.75682397  0.55579619     0.19000
C1897       C  0.33737268  0.59200006  0.69011079    -0.06800
C1898       C  0.35410808  0.56340122  0.70382050    -0.18000
C1899       C  0.33799328  0.54170583  0.72726827     0.10400
C1900       C  0.30300552  0.54635092  0.73507710    -0.06800
C1901       C  0.28716985  0.57606923  0.72318554    -0.18000
C1902       C  0.30474184  0.60017402  0.70377224     0.10400
S1903       S  0.36433204  0.51072873  0.74804631    -0.33000
S1904       S  0.28535037  0.64191458  0.70224629    -0.33000
H1905       H  0.31631484  0.66004701  0.70300062     0.28400
H1906       H  0.34449609  0.50934771  0.77757845     0.28400
H1907       H  0.38050844  0.55859161  0.69726806     0.19000
H1908       H  0.26104672  0.58153228  0.73038146     0.19000
loop_ 
_geom_bond_atom_site_label_1 
_geom_bond_atom_site_label_2 
_geom_bond_distance 
_geom_bond_site_symmetry_2 
_ccdc_geom_bond_type 
C1            C2   1.525       .  S
C1            C7   1.534       .  S
C1            C5   1.538       .  S
C1         C1897   1.541       .  S
C2            H9   1.085       .  S
C2            C3   1.373       .  D
C3            C4   1.553       .  S
C3         C1873   1.508       .  S
C4            C8   1.547       .  S
C4            C6   1.545       .  S
C4           H10   1.101       .  S
C5           H11   1.080       .  S
C5            C6   1.367       .  D
C6         C1885   1.504       .  S
C7           H12   1.086       .  S
C7            C8   1.368       .  D
C8           C33   1.479       .  S
N13          N14   1.319       .  A
N13          N19   1.315       .  A
N13         Mn42   2.184       .  S
N14          C21   1.348       .  A
N15          N17   1.313       .  A
N15          N16   1.318       .  A
N15         Mn31   2.187       .  S
N16          C22   1.353       .  A
N17          N18   1.319       .  A
N17         Mn42   2.190       .  S
N18          C22   1.352       .  A
N19          N20   1.322       .  A
N19         Mn31   2.221       .  S
N20          C21   1.356       .  A
C21         C125   1.468       .  S
C22          C70   1.494       .  S
N23          N29   1.317       .  A
N23          N24   1.327       .  A
N23         Mn53   2.217       .  S
N24          C32   1.356       .  A
N25          N26   1.316       .  A
N25          N27   1.318       .  A
N25         Mn31   2.190       .  S
N26          C33   1.348       .  A
N27          N28   1.327       .  A
N27         Mn53   2.234       .  S
N28          C33   1.358       .  A
N29          N30   1.317       .  A
N29         Mn31   2.208       .  S
N30          C32   1.350       .  A
Mn31        Cl55   2.526       .  S
C32          C96   1.479       .  S
N34          N35   1.316       .  A
N34          N40   1.314       .  A
N34         Mn42   2.180       .  S
N35          C43   1.348       .  A
N36          N38   1.314       .  A
N36          N37   1.322       .  A
N36         Mn54   2.210       .  S
N37          C44   1.355       .  A
N38          N39   1.319       .  A
N38         Mn42   2.195       .  S
N39          C44   1.351       .  A
N40          N41   1.325       .  A
N40         Mn54   2.221       .  S
N41          C43   1.360       .  A
Mn42        Cl55   2.553       .  S
C43         C106   1.504       .  S
C44          C65   1.470       .  S
N45          N46   1.323       .  A
N45          N51   1.319       .  A
N45         Mn53   2.211       .  S
N46          C56   1.353       .  A
N47          N48   1.316       .  A
N47          N49   1.318       .  A
N47         Mn54   2.198       .  S
N48          C57   1.348       .  A
N49          N50   1.328       .  A
N49         Mn53   2.234       .  S
N50          C57   1.358       .  A
N51          N52   1.317       .  A
N51         Mn54   2.203       .  S
N52          C56   1.350       .  A
Mn53        Cl55   2.578       .  S
Mn54        Cl55   2.532       .  S
C56         C137   1.469       .  S
C57          C87   1.480       .  S
C58          C59   1.544       .  S
C58          C64   1.524       .  S
C58          C62   1.537       .  S
C58        C1861   1.537       .  S
C59          H66   1.082       .  S
C59          C60   1.364       .  D
C60          C61   1.535       .  S
C60        C1837   1.480       .  S
C61          C65   1.545       .  S
C61          C63   1.551       .  S
C61          H67   1.106       .  S
C62          H68   1.084       .  S
C62          C63   1.370       .  D
C63        C1849   1.505       .  S
C64          H69   1.087       .  S
C64          C65   1.361       .  D
C70          C71   1.531       .  S
C70          C76   1.532       .  S
C70          C74   1.534       .  S
C71          H78   1.087       .  S
C71          C72   1.361       .  D
C72          C73   1.536       .  S
C72        C1813   1.470       .  S
C73          C77   1.540       .  S
C73          C75   1.539       .  S
C73          H79   1.111       .  S
C74          H80   1.086       .  S
C74          C75   1.369       .  D
C75        C1825   1.482       .  S
C76          H81   1.086       .  S
C76          C77   1.364       .  D
C77        C1801   1.477       .  S
C82          C83   1.530       .  S
C82          C88   1.533       .  S
C82          C86   1.533       .  S
C82        C1789   1.546       .  S
C83          H90   1.087       .  S
C83          C84   1.365       .  D
C84          C85   1.543       .  S
C84        C1765   1.494       .  S
C85          C89   1.551       .  S
C85          C87   1.549       .  S
C85          H91   1.105       .  S
C86          H92   1.086       .  S
C86          C87   1.370       .  D
C88          H93   1.081       .  S
C88          C89   1.372       .  D
C89        C1777   1.506       .  S
C94          C95   1.534       .  S
C94         C100   1.527       .  S
C94          C98   1.546       .  S
C94        C1753   1.540       .  S
C95         H102   1.087       .  S
C95          C96   1.367       .  D
C96          C97   1.545       .  S
C97         C101   1.546       .  S
C97          C99   1.540       .  S
C97         H103   1.111       .  S
C98         H104   1.079       .  S
C98          C99   1.367       .  D
C99        C1741   1.487       .  S
C100        H105   1.087       .  S
C100        C101   1.361       .  D
C101       C1732   1.479       .  S
C106        C107   1.530       .  S
C106        C112   1.529       .  S
C106        C110   1.540       .  S
C107        H114   1.087       .  S
C107        C108   1.366       .  D
C108        C109   1.546       .  S
C108       C1693   1.479       .  S
C109        C113   1.545       .  S
C109        C111   1.545       .  S
C109        H115   1.111       .  S
C110        H116   1.086       .  S
C110        C111   1.367       .  D
C111       C1717   1.490       .  S
C112        H117   1.087       .  S
C112        C113   1.363       .  D
C113       C1705   1.485       .  S
C118        C119   1.544       .  S
C118        C124   1.532       .  S
C118        C122   1.540       .  S
C118       C1681   1.536       .  S
C119        H126   1.086       .  S
C119        C120   1.371       .  D
C120        C121   1.546       .  S
C120       C1657   1.495       .  S
C121        C125   1.538       .  S
C121        C123   1.538       .  S
C121        H127   1.111       .  S
C122        H128   1.083       .  S
C122        C123   1.357       .  D
C123       C1669   1.470       .  S
C124        H129   1.087       .  S
C124        C125   1.363       .  D
C130        C131   1.539       .  S
C130        C136   1.537       .  S
C130        C134   1.523       .  S
C130       C1633   1.538       .  S
C131        H138   1.075       .  S
C131        C132   1.379       .  D
C132        C133   1.553       .  S
C132       C1645   1.524       .  S
C133        C137   1.536       .  S
C133        C135   1.549       .  S
C133        H139   1.100       .  S
C134        H140   1.087       .  S
C134        C135   1.362       .  D
C135       C1621   1.485       .  S
C136        H141   1.087       .  S
C136        C137   1.362       .  D
C142        C143   1.417   1_556  A
C142        C147   1.404       .  A
C142       C1609   1.485       .  S
C143        C144   1.413       .  A
C143       C1585   1.508       .  S
C144        C145   1.410       .  A
C144        H149   1.084       .  S
C145        C146   1.420   1_554  A
C145       C1597   1.486       .  S
C146        C147   1.408       .  A
C146       C1576   1.503       .  S
C147        H148   1.085       .  S
C150        C151   1.419   1_545  A
C150        C155   1.410       .  A
C150       C1537   1.497       .  S
C151        C152   1.405       .  A
C151       C1564   1.485       .  S
C152        C153   1.409       .  A
C152        H157   1.084       .  S
C153        C154   1.416   1_565  A
C153       C1528   1.488       .  S
C154        C155   1.400       .  A
C154       C1549   1.494       .  S
C155        H156   1.084       .  S
C158        C159   1.409   1_455  A
C158        C163   1.398       .  A
C158       C1513   1.486       .  S
C159        C160   1.404       .  A
C159       C1489   1.479       .  S
C160        C161   1.404       .  A
C160        H165   1.085       .  S
C161        C162   1.424   1_655  A
C161       C1501   1.493       .  S
C162        C163   1.412       .  A
C162       C1477   1.495       .  S
C163        H164   1.084       .  S
C166        C167   1.418       .  A
C166        C171   1.406       .  A
C166       C1828   1.493       .  S
C167        C168   1.404       .  A
C167       C1720   1.493       .  S
C168        C169   1.409       .  A
C168        H173   1.084       .  S
C169        C170   1.419       .  A
C169       C1456   1.489       .  S
C170        C171   1.408       .  A
C170       C1468   1.499       .  S
C171        H172   1.083       .  S
C174        C175   1.411       .  A
C174        C179   1.397       .  A
C174       C1816   1.475       .  S
C175        C176   1.400       .  A
C175       C1684   1.476       .  S
C176        C177   1.399       .  A
C176        H181   1.085       .  S
C177        C178   1.413       .  A
C177       C1429   1.476       .  S
C178        C179   1.402       .  A
C178       C1444   1.479       .  S
C179        H180   1.084       .  S
C182        C183   1.413       .  A
C182        C187   1.401       .  A
C182       C1804   1.485       .  S
C183        C184   1.401       .  A
C183       C1756   1.478       .  S
C184        C185   1.400       .  A
C184        H189   1.085       .  S
C185        C186   1.417       .  A
C185       C1420   1.485       .  S
C186        C187   1.405       .  A
C186       C1408   1.483       .  S
C187        H188   1.084       .  S
C190        C191   1.404   1_556  A
C190        C195   1.401       .  A
C190       C1393   1.488       .  S
C191        C192   1.395       .  A
C191       C1381   1.472       .  S
C192        C193   1.403       .  A
C192        H197   1.085       .  S
C193        C194   1.428   1_554  A
C193       C1357   1.488       .  S
C194        C195   1.417       .  A
C194       C1372   1.504       .  S
C195        H196   1.083       .  S
C198        C199   1.412   1_554  A
C198        C203   1.402       .  A
C198       C1336   1.487       .  S
C199        C200   1.406       .  A
C199       C1345   1.486       .  S
C200        C201   1.408       .  A
C200        H205   1.085       .  S
C201        C202   1.424   1_556  A
C201       C1324   1.488       .  S
C202        C203   1.411       .  A
C202       C1312   1.502       .  S
C203        H204   1.084       .  S
C206        C207   1.414       .  A
C206        C211   1.393   1_655  A
C206       C1297   1.473   1_655  S
C207        C208   1.407       .  A
C207       C1285   1.497       .  S
C208        C209   1.414       .  A
C208        H213   1.083       .  S
C209        C210   1.421       .  A
C209       C1276   1.498       .  S
C210        C211   1.395   1_655  A
C210       C1261   1.480   1_655  S
C211        H212   1.086       .  S
C214        C215   1.418       .  A
C214        C219   1.404       .  A
C214       C1696   1.483       .  S
C215        C216   1.406       .  A
C215       C1792   1.494       .  S
C216        C217   1.404       .  A
C216        H221   1.084       .  S
C217        C218   1.418       .  A
C217       C1237   1.483       .  S
C218        C219   1.401       .  A
C218       C1249   1.488       .  S
C219        H220   1.085       .  S
C222        C223   1.422       .  A
C222        C227   1.408       .  A
C222       C1672   1.479       .  S
C223        C224   1.406       .  A
C223       C1900   1.504       .  S
C224        C225   1.401       .  A
C224        H229   1.085       .  S
C225        C226   1.411       .  A
C225       C1213   1.474       .  S
C226        C227   1.398       .  A
C226       C1225   1.488       .  S
C227        H228   1.085       .  S
C230        C231   1.529       .  S
C230        C236   1.531       .  S
C230        C234   1.525       .  S
C230        C250   1.499       .  S
C231        H238   1.086       .  S
C231        C232   1.366       .  D
C232        C233   1.557       .  S
C232       C1177   1.497       .  S
C233        C237   1.558       .  S
C233        C235   1.552       .  S
C233        H239   1.110       .  S
C234        H240   1.087       .  S
C234        C235   1.362       .  D
C235       C1204   1.485       .  S
C236        H241   1.086       .  S
C236        C237   1.367       .  D
C237       C1189   1.500       .  S
N242        N243   1.317       .  A
N242        N248   1.314       .  A
N242       Mn271   2.174       .  S
N243        C250   1.348       .  A
N244        N246   1.312       .  A
N244        N245   1.320       .  A
N244       Mn260   2.206       .  S
N245        C251   1.356       .  A
N246        N247   1.319       .  A
N246       Mn271   2.179   1_554  S
N247        C251   1.351       .  A
N248        N249   1.321       .  A
N248       Mn260   2.213   1_556  S
N249        C250   1.357       .  A
C251        C335   1.501       .  S
N252        N258   1.316       .  A
N252        N253   1.322       .  A
N252       Mn282   2.209       .  S
N253        C261   1.356       .  A
N254        N255   1.317       .  A
N254        N256   1.318       .  A
N254       Mn260   2.204   1_556  S
N255        C262   1.351       .  A
N256        N257   1.329       .  A
N256       Mn282   2.236   1_556  S
N257        C262   1.358       .  A
N258        N259   1.316       .  A
N258       Mn260   2.189       .  S
N259        C261   1.349       .  A
Mn260      Cl284   2.538   1_554  S
C261        C287   1.497       .  S
C262        C325   1.486       .  S
N263        N264   1.315       .  A
N263        N269   1.313       .  A
N263       Mn271   2.167   1_454  S
N264        C272   1.347       .  A
N265        N267   1.315       .  A
N265        N266   1.324       .  A
N265       Mn283   2.203       .  S
N266        C273   1.355       .  A
N267        N268   1.311       .  A
N267       Mn271   2.169   1_455  S
N268        C273   1.344       .  A
N269        N270   1.322       .  A
N269       Mn283   2.216   1_554  S
N270        C272   1.358       .  A
Mn271      Cl284   2.532       .  S
C272        C355   1.494       .  S
C273        C318   1.460       .  S
N274        N275   1.316       .  A
N274        N280   1.319       .  A
N274       Mn282   2.210   1_456  S
N275        C285   1.351       .  A
N276        N277   1.315       .  A
N276        N278   1.317       .  A
N276       Mn283   2.175   1_554  S
N277        C286   1.346       .  A
N278        N279   1.326       .  A
N278       Mn282   2.232   1_455  S
N279        C286   1.358       .  A
N280        N281   1.327       .  A
N280       Mn283   2.223       .  S
N281        C285   1.355       .  A
Mn282      Cl284   2.553   1_554  S
Mn283      Cl284   2.559   1_455  S
C285        C301   1.478       .  S
C286        C374   1.474       .  S
C287        C288   1.528       .  S
C287        C293   1.527       .  S
C287        C291   1.530       .  S
C288        H295   1.087       .  S
C288        C289   1.362       .  D
C289        C290   1.554       .  S
C289       C1333   1.491       .  S
C290        C294   1.557       .  S
C290        C292   1.556       .  S
C290        H296   1.110       .  S
C291        H297   1.087       .  S
C291        C292   1.362       .  D
C292       C1252   1.490       .  S
C293        H298   1.086       .  S
C293        C294   1.367       .  D
C294       C1504   1.493       .  S
C299        C300   1.519       .  S
C299        C305   1.529       .  S
C299        C303   1.541       .  S
C299       C1300   1.530       .  S
C300        H307   1.087       .  S
C300        C301   1.360       .  D
C301        C302   1.551       .  S
C302        C306   1.561       .  S
C302        C304   1.548       .  S
C302        H308   1.105       .  S
C303        H309   1.080       .  S
C303        C304   1.370       .  D
C304       C1228   1.505       .  S
C305        H310   1.080       .  S
C305        C306   1.361       .  D
C306       C1573   1.504       .  S
C311        C312   1.529       .  S
C311        C317   1.533       .  S
C311        C315   1.529       .  S
C311       C1165   1.528       .  S
C312        H319   1.084       .  S
C312        C313   1.369       .  D
C313        C314   1.547       .  S
C313       C1369   1.499       .  S
C314        C318   1.539       .  S
C314        C316   1.533       .  S
C314        H320   1.107       .  S
C315        H321   1.086       .  S
C315        C316   1.364       .  D
C316       C1216   1.480       .  S
C317        H322   1.086       .  S
C317        C318   1.366       .  D
C323        C324   1.532       .  S
C323        C329   1.535       .  S
C323        C327   1.538       .  S
C323       C1156   1.547       .  S
C324        H331   1.087       .  S
C324        C325   1.364       .  D
C325        C326   1.549       .  S
C326        C330   1.556       .  S
C326        C328   1.553       .  S
C326        H332   1.107       .  S
C327        H333   1.080       .  S
C327        C328   1.360       .  D
C328       C1288   1.487       .  S
C329        H334   1.086       .  S
C329        C330   1.374       .  D
C330       C1348   1.508       .  S
C335        C336   1.533       .  S
C335        C341   1.533       .  S
C335        C339   1.526       .  S
C336        H343   1.086       .  S
C336        C337   1.369       .  D
C337        C338   1.553       .  S
C337       C1144   1.496       .  S
C338        C342   1.548       .  S
C338        C340   1.550       .  S
C338        H344   1.111       .  S
C339        H345   1.087       .  S
C339        C340   1.359       .  D
C340       C1240   1.479       .  S
C341        H346   1.086       .  S
C341        C342   1.368       .  D
C342       C1132   1.492       .  S
C347        C348   1.420       .  A
C347        C352   1.405       .  A
C347       C1636   1.494       .  S
C348        C349   1.408       .  A
C348       C1840   1.493       .  S
C349        C350   1.409       .  A
C349        H354   1.084       .  S
C350        C351   1.416       .  A
C350       C1153   1.493       .  S
C351        C352   1.398       .  A
C351       C1201   1.487       .  S
C352        H353   1.085       .  S
C355        C356   1.527       .  S
C355        C361   1.523       .  S
C355        C359   1.536       .  S
C356        H363   1.087       .  S
C356        C357   1.366       .  D
C357        C358   1.547       .  S
C357       C1417   1.482       .  S
C358        C362   1.548       .  S
C358        C360   1.550       .  S
C358        H364   1.110       .  S
C359        H365   1.086       .  S
C359        C360   1.369       .  D
C360       C1120   1.492       .  S
C361        H366   1.087       .  S
C361        C362   1.359       .  D
C362       C1360   1.484       .  S
C367        C368   1.525       .  S
C367        C373   1.527       .  S
C367        C371   1.540       .  S
C367       C1405   1.544       .  S
C368        H375   1.084       .  S
C368        C369   1.377       .  D
C369        C370   1.557       .  S
C369       C1480   1.500       .  S
C370        C374   1.539       .  S
C370        C372   1.547       .  S
C370        H376   1.101       .  S
C371        H377   1.079       .  S
C371        C372   1.365       .  D
C372       C1600   1.512       .  S
C373        H378   1.087       .  S
C373        C374   1.365       .  D
C379        C380   1.420   1_565  A
C379        C384   1.407       .  A
C379       C1105   1.484       .  S
C380        C381   1.417       .  A
C380       C1096   1.516       .  S
C381        C382   1.419       .  A
C381        H386   1.083       .  S
C382        C383   1.424   1_545  A
C382       C1084   1.511       .  S
C383        C384   1.404       .  A
C383       C1069   1.497       .  S
C384        H385   1.085       .  S
C387        C388   1.421       .  A
C387        C392   1.411       .  A
C387       C1729   1.486       .  S
C388        C389   1.406       .  A
C388       C1780   1.502       .  S
C389        C390   1.400       .  A
C389        H394   1.084       .  S
C390        C391   1.411       .  A
C390       C1057   1.481       .  S
C391        C392   1.406       .  A
C391       C1045   1.490       .  S
C392        H393   1.084       .  S
C395        C396   1.420       .  A
C395        C400   1.402       .  A
C395       C1660   1.489       .  S
C396        C397   1.413       .  A
C396       C1852   1.500       .  S
C397        C398   1.406       .  A
C397        H402   1.083       .  S
C398        C399   1.417       .  A
C398       C1033   1.499       .  S
C399        C400   1.406       .  A
C399       C1021   1.486       .  S
C400        H401   1.084       .  S
C403        C404   1.532       .  S
C403        C409   1.532       .  S
C403        C407   1.532       .  S
C403       C1009   1.548       .  S
C404        H411   1.081       .  S
C404        C405   1.368       .  D
C405        C406   1.564       .  S
C405       C1036   1.501       .  S
C406        C410   1.550       .  S
C406        C408   1.566       .  S
C406        H412   1.109       .  S
C407        H413   1.084       .  S
C407        C408   1.371       .  D
C408       C1321   1.519       .  S
C409        H414   1.087       .  S
C409        C410   1.367       .  D
C410        C435   1.491       .  S
N415        N416   1.324       .  A
N415        N421   1.319       .  A
N415       Mn444   2.223       .  S
N416        C423   1.355       .  A
N417        N419   1.316       .  A
N417        N418   1.317       .  A
N417       Mn433   2.178   1_564  S
N418        C424   1.349       .  A
N419        N420   1.318       .  A
N419       Mn444   2.201   1_554  S
N420        C424   1.352       .  A
N421        N422   1.323       .  A
N421       Mn433   2.219   1_565  S
N422        C423   1.352       .  A
C423        C498   1.480       .  S
C424        C460   1.491       .  S
N425        N431   1.316       .  A
N425        N426   1.321       .  A
N425       Mn455   2.216       .  S
N426        C434   1.355       .  A
N427        N428   1.315       .  A
N427        N429   1.317       .  A
N427       Mn433   2.185       .  S
N428        C435   1.348       .  A
N429        N430   1.333       .  A
N429       Mn455   2.258   1_556  S
N430        C435   1.364       .  A
N431        N432   1.328       .  A
N431       Mn433   2.225   1_554  S
N432        C434   1.357       .  A
Mn433      Cl457   2.554       .  S
C434        C547   1.490       .  S
N436        N437   1.321       .  A
N436        N442   1.317       .  A
N436       Mn444   2.212   1_554  S
N437        C445   1.352       .  A
N438        N440   1.319       .  A
N438        N439   1.324       .  A
N438       Mn456   2.220   1_566  S
N439        C446   1.353       .  A
N440        N441   1.323       .  A
N440       Mn444   2.222       .  S
N441        C446   1.354       .  A
N442        N443   1.324       .  A
N442       Mn456   2.221   1_565  S
N443        C445   1.356       .  A
Mn444      Cl457   2.550   1_565  S
C445        C510   1.476       .  S
C446        C479   1.480       .  S
N447        N448   1.319       .  A
N447        N453   1.319       .  A
N447       Mn455   2.225   1_556  S
N448        C458   1.355       .  A
N449        N450   1.326       .  A
N449        N451   1.318       .  A
N449       Mn456   2.217       .  S
N450        C459   1.355       .  A
N451        N452   1.322       .  A
N451       Mn455   2.228       .  S
N452        C459   1.355       .  A
N453        N454   1.326       .  A
N453       Mn456   2.214   1_556  S
N454        C458   1.353       .  A
Mn455      Cl457   2.550   1_554  S
Mn456      Cl457   2.571   1_554  S
C458        C491   1.482       .  S
C459        C530   1.487       .  S
C460        C461   1.524       .  S
C460        C466   1.532       .  S
C460        C464   1.535       .  S
C461        H468   1.087       .  S
C461        C462   1.359       .  D
C462        C463   1.544       .  S
C462       C1060   1.470       .  S
C463        C467   1.540       .  S
C463        C465   1.539       .  S
C463        H469   1.110       .  S
C464        H470   1.086       .  S
C464        C465   1.367       .  D
C465        C997   1.481       .  S
C466        H471   1.087       .  S
C466        C467   1.364       .  D
C467        C985   1.483       .  S
C472        C473   1.538       .  S
C472        C478   1.536       .  S
C472        C476   1.529       .  S
C472       C1396   1.546       .  S
C473        H480   1.079       .  S
C473        C474   1.374       .  D
C474        C475   1.561       .  S
C474       C1108   1.531       .  S
C475        C479   1.538       .  S
C475        C477   1.551       .  S
C475        H481   1.099       .  S
C476        H482   1.086       .  S
C476        C477   1.367       .  D
C477        C976   1.480       .  S
C478        H483   1.087       .  S
C478        C479   1.364       .  D
C484        C485   1.539       .  S
C484        C490   1.525       .  S
C484        C488   1.538       .  S
C484       C1024   1.539       .  S
C485        H492   1.078       .  S
C485        C486   1.365       .  D
C486        C487   1.556       .  S
C486       C1093   1.513       .  S
C487        C491   1.560       .  S
C487        C489   1.534       .  S
C487        H493   1.109       .  S
C488        H494   1.087       .  S
C488        C489   1.362       .  D
C489       C1612   1.477       .  S
C490        H495   1.086       .  S
C490        C491   1.365       .  D
C496        C497   1.528       .  S
C496        C502   1.543       .  S
C496        C500   1.538       .  S
C496        C949   1.544       .  S
C497        H504   1.087       .  S
C497        C498   1.364       .  D
C498        C499   1.546       .  S
C499        C503   1.545       .  S
C499        C501   1.550       .  S
C499        H505   1.107       .  S
C500        H506   1.080       .  S
C500        C501   1.373       .  D
C501        C961   1.500       .  S
C502        H507   1.084       .  S
C502        C503   1.364       .  D
C503        C937   1.502       .  S
C508        C509   1.534       .  S
C508        C514   1.531       .  S
C508        C512   1.541       .  S
C508       C1384   1.532       .  S
C509        H516   1.087       .  S
C509        C510   1.364       .  D
C510        C511   1.545       .  S
C511        C515   1.543       .  S
C511        C513   1.545       .  S
C511        H517   1.111       .  S
C512        H518   1.080       .  S
C512        C513   1.366       .  D
C513       C1048   1.490       .  S
C514        H519   1.087       .  S
C514        C515   1.359       .  D
C515       C1525   1.473       .  S
C520        C521   1.416       .  A
C520        C525   1.405       .  A
C520       C1876   1.501       .  S
C521        C522   1.402       .  A
C521       C1624   1.488       .  S
C522        C523   1.411       .  A
C522        H527   1.084       .  S
C523        C524   1.424       .  A
C523        C964   1.506       .  S
C524        C525   1.408       .  A
C524        C973   1.492       .  S
C525        H526   1.083       .  S
C528        C529   1.538       .  S
C528        C534   1.527       .  S
C528        C532   1.528       .  S
C528       C1465   1.539       .  S
C529        H536   1.086       .  S
C529        C530   1.375       .  D
C530        C531   1.559       .  S
C531        C535   1.545       .  S
C531        C533   1.553       .  S
C531        H537   1.106       .  S
C532        H538   1.082       .  S
C532        C533   1.370       .  D
C533       C1588   1.510       .  S
C534        H539   1.087       .  S
C534        C535   1.360       .  D
C535       C1552   1.492       .  S
C540        C541   1.544       .  S
C540        C546   1.535       .  S
C540        C544   1.528       .  S
C540       C1453   1.547       .  S
C541        H548   1.080       .  S
C541        C542   1.361       .  D
C542        C543   1.548       .  S
C542        C925   1.501       .  S
C543        C547   1.557       .  S
C543        C545   1.557       .  S
C543        H549   1.104       .  S
C544        H550   1.084       .  S
C544        C545   1.370       .  D
C545       C1309   1.513       .  S
C546        H551   1.086       .  S
C546        C547   1.369       .  D
C552        C553   1.424   1_655  A
C552        C557   1.408       .  A
C552       C1141   1.500       .  S
C553        C554   1.408       .  A
C553       C1117   1.494       .  S
C554        C555   1.406       .  A
C554        H559   1.084       .  S
C555        C556   1.416   1_455  A
C555        C901   1.497       .  S
C556        C557   1.407       .  A
C556        C913   1.487       .  S
C557        H558   1.084       .  S
C560        C561   1.417   1_565  A
C560        C565   1.401       .  A
C560       C1000   1.473       .  S
C561        C562   1.406       .  A
C561        C928   1.497       .  S
C562        C563   1.409       .  A
C562        H567   1.084       .  S
C563        C564   1.410   1_545  A
C563        C889   1.475       .  S
C564        C565   1.396       .  A
C564        C880   1.486       .  S
C565        H566   1.085       .  S
C568        C569   1.414       .  A
C568        C573   1.399       .  A
C568       C1708   1.481       .  S
C569        C570   1.398       .  A
C569       C1864   1.476       .  S
C570        C571   1.398       .  A
C570        H575   1.085       .  S
C571        C572   1.414       .  A
C571        C868   1.475       .  S
C572        C573   1.403       .  A
C572        C853   1.482       .  S
C573        H574   1.085       .  S
C576        C577   1.412       .  A
C576        C581   1.401       .  A
C576       C1888   1.478       .  S
C577        C578   1.404       .  A
C577       C1744   1.491       .  S
C578        C579   1.408       .  A
C578        H583   1.084       .  S
C579        C580   1.423       .  A
C579        C829   1.490       .  S
C580        C581   1.404       .  A
C580        C844   1.491       .  S
C581        H582   1.085       .  S
C584        C585   1.530       .  S
C584        C590   1.544       .  S
C584        C588   1.528       .  S
C584        C856   1.535       .  S
C585        H592   1.077       .  S
C585        C586   1.359       .  D
C586        C587   1.535       .  S
C586       C1492   1.466       .  S
C587        C591   1.536       .  S
C587        C589   1.548       .  S
C587        H593   1.104       .  S
C588        H594   1.086       .  S
C588        C589   1.369       .  D
C589        C892   1.504       .  S
C590        H595   1.086       .  S
C590        C591   1.369       .  D
C591        C616   1.475       .  S
N596        N597   1.324       .  A
N596        N602   1.317       .  A
N596       Mn625   2.208       .  S
N597        C604   1.354       .  A
N598        N600   1.314       .  A
N598        N599   1.319       .  A
N598       Mn614   2.185   1_565  S
N599        C605   1.352       .  A
N600        N601   1.315       .  A
N600       Mn625   2.183   1_565  S
N601        C605   1.349       .  A
N602        N603   1.315       .  A
N602       Mn614   2.196       .  S
N603        C604   1.348       .  A
C604        C679   1.472       .  S
C605        C689   1.486       .  S
N606        N612   1.315       .  A
N606        N607   1.322       .  A
N606       Mn636   2.208   1_565  S
N607        C615   1.354       .  A
N608        N609   1.319       .  A
N608        N610   1.317       .  A
N608       Mn614   2.190       .  S
N609        C616   1.348       .  A
N610        N611   1.324       .  A
N610       Mn636   2.226       .  S
N611        C616   1.357       .  A
N612        N613   1.321       .  A
N612       Mn614   2.209   1_565  S
N613        C615   1.354       .  A
Mn614      Cl638   2.521       .  S
C615        C648   1.474       .  S
N617        N618   1.319       .  A
N617        N623   1.314       .  A
N617       Mn625   2.184   1_465  S
N618        C626   1.350       .  A
N619        N621   1.317       .  A
N619        N620   1.315       .  A
N619       Mn637   2.197       .  S
N620        C627   1.348       .  A
N621        N622   1.328       .  A
N621       Mn625   2.221   1_455  S
N622        C627   1.357       .  A
N623        N624   1.321       .  A
N623       Mn637   2.214   1_565  S
N624        C626   1.357       .  A
Mn625      Cl638   2.576       .  S
C626        C665   1.502       .  S
C627        C728   1.478       .  S
N628        N629   1.329       .  A
N628        N634   1.318       .  A
N628       Mn636   2.227   1_455  S
N629        C639   1.358       .  A
N630        N631   1.319       .  A
N630        N632   1.316       .  A
N630       Mn637   2.198   1_565  S
N631        C640   1.352       .  A
N632        N633   1.319       .  A
N632       Mn636   2.195   1_465  S
N633        C640   1.352       .  A
N634        N635   1.317       .  A
N634       Mn637   2.210       .  S
N635        C639   1.350       .  A
Mn636      Cl638   2.579       .  S
Mn637      Cl638   2.515   1_455  S
C639        C714   1.485       .  S
C640        C653   1.497       .  S
C641        C642   1.534       .  S
C641        C647   1.531       .  S
C641        C645   1.544       .  S
C641        C877   1.544       .  S
C642        H649   1.086       .  S
C642        C643   1.372       .  D
C643        C644   1.557       .  S
C643        C916   1.509       .  S
C644        C648   1.545       .  S
C644        C646   1.552       .  S
C644        H650   1.107       .  S
C645        H651   1.080       .  S
C645        C646   1.363       .  D
C646        C817   1.491       .  S
C647        H652   1.087       .  S
C647        C648   1.360       .  D
C653        C654   1.530       .  S
C653        C659   1.526       .  S
C653        C657   1.531       .  S
C654        H661   1.086       .  S
C654        C655   1.368       .  D
C655        C656   1.553       .  S
C655        C904   1.493       .  S
C656        C660   1.549       .  S
C656        C658   1.554       .  S
C656        H662   1.110       .  S
C657        H663   1.086       .  S
C657        C658   1.367       .  D
C658        C832   1.496       .  S
C659        H664   1.087       .  S
C659        C660   1.360       .  D
C660       C1561   1.482       .  S
C665        C666   1.526       .  S
C665        C671   1.528       .  S
C665        C669   1.535       .  S
C666        H673   1.087       .  S
C666        C667   1.363       .  D
C667        C668   1.557       .  S
C667        C841   1.490       .  S
C668        C672   1.559       .  S
C668        C670   1.561       .  S
C668        H674   1.110       .  S
C669        H675   1.086       .  S
C669        C670   1.368       .  D
C670        C805   1.505       .  S
C671        H676   1.086       .  S
C671        C672   1.363       .  D
C672       C1072   1.497       .  S
C677        C678   1.521       .  S
C677        C683   1.543       .  S
C677        C681   1.539       .  S
C677        C865   1.534       .  S
C678        H685   1.087       .  S
C678        C679   1.360       .  D
C679        C680   1.545       .  S
C680        C684   1.549       .  S
C680        C682   1.538       .  S
C680        H686   1.105       .  S
C681        H687   1.084       .  S
C681        C682   1.361       .  D
C682        C793   1.480       .  S
C683        H688   1.082       .  S
C683        C684   1.376       .  D
C684       C1273   1.508       .  S
C689        C690   1.527       .  S
C689        C695   1.527       .  S
C689        C693   1.524       .  S
C690        H697   1.087       .  S
C690        C691   1.362       .  D
C691        C692   1.547       .  S
C691        C757   1.480       .  S
C692        C696   1.551       .  S
C692        C694   1.550       .  S
C692        H698   1.110       .  S
C693        H699   1.087       .  S
C693        C694   1.362       .  D
C694        C781   1.475       .  S
C695        H700   1.087       .  S
C695        C696   1.364       .  D
C696        C769   1.492       .  S
C701        C702   1.412       .  A
C701        C706   1.400       .  A
C701       C1648   1.481       .  S
C702        C703   1.407       .  A
C702       C1768   1.481       .  S
C703        C704   1.408       .  A
C703        H708   1.084       .  S
C704        C705   1.415       .  A
C704        C820   1.498       .  S
C705        C706   1.400       .  A
C705        C784   1.471       .  S
C706        H707   1.085       .  S
C709        C710   1.526       .  S
C709        C715   1.525       .  S
C709        C713   1.531       .  S
C709       C1441   1.534       .  S
C710        H717   1.087       .  S
C710        C711   1.364       .  D
C711        C712   1.548       .  S
C711       C1516   1.502       .  S
C712        C716   1.562       .  S
C712        C714   1.556       .  S
C712        H718   1.103       .  S
C713        H719   1.087       .  S
C713        C714   1.367       .  D
C715        H720   1.080       .  S
C715        C716   1.371       .  D
C716       C1540   1.511       .  S
C721        C722   1.536       .  S
C721        C727   1.521       .  S
C721        C725   1.537       .  S
C721       C1432   1.535       .  S
C722        H729   1.084       .  S
C722        C723   1.361       .  D
C723        C724   1.539       .  S
C723       C1264   1.483       .  S
C724        C728   1.551       .  S
C724        C726   1.561       .  S
C724        H730   1.105       .  S
C725        H731   1.083       .  S
C725        C726   1.375       .  D
C726       C1081   1.517       .  S
C727        H732   1.087       .  S
C727        C728   1.363       .  D
C733        C734   1.424       .  A
C733        C738   1.414   1_655  A
C733       C1168   1.487   1_655  S
C734        C735   1.405       .  A
C734       C1192   1.509       .  S
C735        C736   1.410       .  A
C735        H740   1.084       .  S
C736        C737   1.420   1_655  A
C736        C760   1.480       .  S
C737        C738   1.399       .  A
C737        C808   1.511       .  S
C738        H739   1.084       .  S
C741        C742   1.415   1_565  A
C741        C746   1.400       .  A
C741        C940   1.478       .  S
C742        C743   1.404       .  A
C742       C1012   1.493       .  S
C743        C744   1.407       .  A
C743        H748   1.084       .  S
C744        C745   1.421   1_545  A
C744        C796   1.488       .  S
C745        C746   1.403       .  A
C745        C772   1.490       .  S
C746        H747   1.085       .  S
C749        C750   1.426   1_556  A
C749        C754   1.407       .  A
C749       C1180   1.502       .  S
C750        C751   1.411       .  A
C750       C1129   1.495       .  S
C751        C752   1.404       .  A
C751        H756   1.084       .  S
C752        C753   1.414   1_554  A
C752        C988   1.491       .  S
C753        C754   1.404       .  A
C753        C952   1.485       .  S
C754        H755   1.084       .  S
C757        C758   1.405       .  A
C757        C762   1.409       .  A
C758        C759   1.399       .  A
C758        H767   1.082       .  S
C759        C760   1.410       .  A
C759        S763   1.807       .  S
C760        C761   1.403       .  A
C761        C762   1.395       .  A
C761        H768   1.084       .  S
C762        S764   1.794       .  S
S763        H766   1.407       .  S
S764        H765   1.405       .  S
C769        C770   1.408       .  A
C769        C774   1.410       .  A
C770        C771   1.398       .  A
C770        H779   1.084       .  S
C771        C772   1.411       .  A
C771        S775   1.801       .  S
C772        C773   1.406       .  A
C773        C774   1.403       .  A
C773        H780   1.083       .  S
C774        S776   1.800       .  S
S775        H778   1.406       .  S
S776        H777   1.406       .  S
C781        C782   1.400       .  A
C781        C786   1.410       .  A
C782        C783   1.398       .  A
C782        H791   1.081       .  S
C783        C784   1.413       .  A
C783        S787   1.807       .  S
C784        C785   1.399       .  A
C785        C786   1.395       .  A
C785        H792   1.084       .  S
C786        S788   1.794       .  S
S787        H790   1.403       .  S
S788        H789   1.404       .  S
C793        C794   1.400       .  A
C793        C798   1.413       .  A
C794        C795   1.401       .  A
C794        H803   1.084       .  S
C795        C796   1.418       .  A
C795        S799   1.807       .  S
C796        C797   1.403       .  A
C797        C798   1.399       .  A
C797        H804   1.084       .  S
C798        S800   1.803       .  S
S799        H802   1.403       .  S
S800        H801   1.405       .  S
C805        C806   1.407       .  A
C805        C810   1.413       .  A
C806        C807   1.409       .  A
C806        H815   1.082       .  S
C807        C808   1.414       .  A
C807        S811   1.806   1_455  S
C808        C809   1.410       .  A
C809        C810   1.414       .  A
C809        H816   1.082       .  S
C810        S812   1.803       .  S
S811        H814   1.406   1_655  S
S812        H813   1.406       .  S
C817        C818   1.401       .  A
C817        C822   1.415       .  A
C818        C819   1.402       .  A
C818        H827   1.078       .  S
C819        C820   1.415       .  A
C819        S823   1.802       .  S
C820        C821   1.405       .  A
C821        C822   1.403       .  A
C821        H828   1.080       .  S
C822        S824   1.802       .  S
S823        H826   1.407       .  S
S824        H825   1.402       .  S
C829        C830   1.405       .  A
C829        C834   1.413       .  A
C830        C831   1.400       .  A
C830        H839   1.084       .  S
C831        C832   1.413       .  A
C831        S835   1.795       .  S
C832        C833   1.409       .  A
C833        C834   1.403       .  A
C833        H840   1.084       .  S
C834        S836   1.804       .  S
S835        H838   1.402       .  S
S836        H837   1.405       .  S
C841        C842   1.407       .  A
C841        C846   1.410       .  A
C842        C843   1.402       .  A
C842        H851   1.084       .  S
C843        C844   1.413       .  A
C843        S847   1.803       .  S
C844        C845   1.406       .  A
C845        C846   1.406       .  A
C845        H852   1.083       .  S
C846        S848   1.803       .  S
S847        H850   1.405       .  S
S848        H849   1.406       .  S
C853        C854   1.399       .  A
C853        C858   1.409       .  A
C854        C855   1.396       .  A
C854        H863   1.085       .  S
C855        C856   1.427       .  A
C855        S859   1.802       .  S
C856        C857   1.411       .  A
C857        C858   1.397       .  A
C857        H864   1.084       .  S
C858        S860   1.803       .  S
S859        H862   1.408       .  S
S860        H861   1.405       .  S
C865        C866   1.412       .  A
C865        C870   1.424       .  A
C866        C867   1.398       .  A
C866        H875   1.082       .  S
C867        C868   1.408       .  A
C867        S871   1.807       .  S
C868        C869   1.397       .  A
C869        C870   1.396       .  A
C869        H876   1.083       .  S
C870        S872   1.805       .  S
S871        H874   1.403       .  S
S872        H873   1.405       .  S
C877        C878   1.413       .  A
C877        C882   1.427       .  A
C878        C879   1.401       .  A
C878        H887   1.071       .  S
C879        C880   1.406       .  A
C879        S883   1.810       .  S
C880        C881   1.398       .  A
C881        C882   1.405       .  A
C881        H888   1.082       .  S
C882        S884   1.812       .  S
S883        H886   1.406       .  S
S884        H885   1.407       .  S
C889        C890   1.400       .  A
C889        C894   1.407       .  A
C890        C891   1.404       .  A
C890        H899   1.083       .  S
C891        C892   1.420       .  A
C891        S895   1.802       .  S
C892        C893   1.412       .  A
C893        C894   1.394       .  A
C893        H900   1.083       .  S
C894        S896   1.809       .  S
S895        H898   1.407       .  S
S896        H897   1.400       .  S
C901        C902   1.403       .  A
C901        C906   1.415       .  A
C902        C903   1.404       .  A
C902        H911   1.081       .  S
C903        C904   1.416       .  A
C903        S907   1.809       .  S
C904        C905   1.402       .  A
C905        C906   1.406       .  A
C905        H912   1.080       .  S
C906        S908   1.808       .  S
S907        H910   1.407       .  S
S908        H909   1.407       .  S
C913        C914   1.402       .  A
C913        C918   1.409       .  A
C914        C915   1.408       .  A
C914        H923   1.083       .  S
C915        C916   1.418       .  A
C915        S919   1.799       .  S
C916        C917   1.412       .  A
C917        C918   1.400       .  A
C917        H924   1.084       .  S
C918        S920   1.806       .  S
S919        H922   1.407       .  S
S920        H921   1.403       .  S
C925        C926   1.408       .  A
C925        C930   1.415       .  A
C926        C927   1.406       .  A
C926        H935   1.083       .  S
C927        C928   1.413       .  A
C927        S931   1.807       .  S
C928        C929   1.405       .  A
C929        C930   1.406       .  A
C929        H936   1.084       .  S
C930        S932   1.797       .  S
S931        H934   1.407       .  S
S932        H933   1.407       .  S
C937        C938   1.411       .  A
C937        C942   1.419       .  A
C938        C939   1.397       .  A
C938        H947   1.083       .  S
C939        C940   1.410       .  A
C939        S943   1.810       .  S
C940        C941   1.399       .  A
C941        C942   1.404       .  A
C941        H948   1.083       .  S
C942        S944   1.802       .  S
S943        H946   1.403       .  S
S944        H945   1.406       .  S
C949        C950   1.414       .  A
C949        C954   1.422       .  A
C950        C951   1.399       .  A
C950        H959   1.079       .  S
C951        C952   1.404       .  A
C951        S955   1.807       .  S
C952        C953   1.402       .  A
C953        C954   1.408       .  A
C953        H960   1.081       .  S
C954        S956   1.809       .  S
S955        H958   1.407       .  S
S956        H957   1.407       .  S
C961        C962   1.409       .  A
C961        C966   1.418       .  A
C962        C963   1.405       .  A
C962        H971   1.082       .  S
C963        C964   1.418       .  A
C963        S967   1.801       .  S
C964        C965   1.407       .  A
C965        C966   1.393       .  A
C965        H972   1.083       .  S
C966        S968   1.806       .  S
S967        H970   1.406       .  S
S968        H969   1.408       .  S
C973        C974   1.406       .  A
C973        C978   1.419       .  A
C974        C975   1.401       .  A
C974        H983   1.082       .  S
C975        C976   1.410       .  A
C975        S979   1.806       .  S
C976        C977   1.399       .  A
C977        C978   1.399       .  A
C977        H984   1.082       .  S
C978        S980   1.806       .  S
S979        H982   1.407       .  S
S980        H981   1.404       .  S
C985        C986   1.404       .  A
C985        C990   1.412       .  A
C986        C987   1.404       .  A
C986        H995   1.084       .  S
C987        C988   1.416       .  A
C987        S991   1.806       .  S
C988        C989   1.404       .  A
C989        C990   1.400       .  A
C989        H996   1.082       .  S
C990        S992   1.806       .  S
S991        H994   1.401       .  S
S992        H993   1.402       .  S
C997        C998   1.406       .  A
C997       C1002   1.414       .  A
C998        C999   1.397       .  A
C998       H1007   1.084       .  S
C999       C1000   1.408       .  A
C999       S1003   1.803       .  S
C1000      C1001   1.400       .  A
C1001      C1002   1.396       .  A
C1001      H1008   1.083       .  S
C1002      S1004   1.803       .  S
S1003      H1006   1.406       .  S
S1004      H1005   1.407       .  S
C1009      C1010   1.416       .  A
C1009      C1014   1.423       .  A
C1010      C1011   1.406       .  A
C1010      H1019   1.076       .  S
C1011      C1012   1.412       .  A
C1011      S1015   1.804       .  S
C1012      C1013   1.396       .  A
C1013      C1014   1.397       .  A
C1013      H1020   1.076       .  S
C1014      S1016   1.805       .  S
S1015      H1018   1.407       .  S
S1016      H1017   1.407       .  S
C1021      C1022   1.401       .  A
C1021      C1026   1.412       .  A
C1022      C1023   1.402       .  A
C1022      H1031   1.082       .  S
C1023      C1024   1.424       .  A
C1023      S1027   1.810       .  S
C1024      C1025   1.413       .  A
C1025      C1026   1.394       .  A
C1025      H1032   1.074       .  S
C1026      S1028   1.809       .  S
S1027      H1030   1.407       .  S
S1028      H1029   1.403       .  S
C1033      C1034   1.405       .  A
C1033      C1038   1.415       .  A
C1034      C1035   1.407       .  A
C1034      H1043   1.084       .  S
C1035      C1036   1.415       .  A
C1035      S1039   1.793       .  S
C1036      C1037   1.408       .  A
C1037      C1038   1.400       .  A
C1037      H1044   1.084       .  S
C1038      S1040   1.801       .  S
S1039      H1042   1.406       .  S
S1040      H1041   1.405       .  S
C1045      C1046   1.401       .  A
C1045      C1050   1.414       .  A
C1046      C1047   1.394       .  A
C1046      H1055   1.080       .  S
C1047      C1048   1.414       .  A
C1047      S1051   1.805       .  S
C1048      C1049   1.405       .  A
C1049      C1050   1.407       .  A
C1049      H1056   1.079       .  S
C1050      S1052   1.803       .  S
S1051      H1054   1.407       .  S
S1052      H1053   1.405       .  S
C1057      C1058   1.402       .  A
C1057      C1062   1.413       .  A
C1058      C1059   1.403       .  A
C1058      H1067   1.083       .  S
C1059      C1060   1.413       .  A
C1059      S1063   1.808       .  S
C1060      C1061   1.393       .  A
C1061      C1062   1.394       .  A
C1061      H1068   1.082       .  S
C1062      S1064   1.801       .  S
S1063      H1066   1.407       .  S
S1064      H1065   1.407       .  S
C1069      C1070   1.407       .  A
C1069      C1074   1.414       .  A
C1070      C1071   1.404       .  A
C1070      H1079   1.084       .  S
C1071      C1072   1.411       .  A
C1071      S1075   1.796       .  S
C1072      C1073   1.409       .  A
C1073      C1074   1.405       .  A
C1073      H1080   1.084       .  S
C1074      S1076   1.803   1_565  S
S1075      H1078   1.405       .  S
S1076      H1077   1.406   1_545  S
C1081      C1082   1.411       .  A
C1081      C1086   1.418       .  A
C1082      C1083   1.394       .  A
C1082      H1091   1.081       .  S
C1083      C1084   1.416       .  A
C1083      S1087   1.805       .  S
C1084      C1085   1.412       .  A
C1085      C1086   1.416       .  A
C1085      H1092   1.080       .  S
C1086      S1088   1.805       .  S
S1087      H1090   1.406       .  S
S1088      H1089   1.407       .  S
C1093      C1094   1.406       .  A
C1093      C1098   1.425       .  A
C1094      C1095   1.412       .  A
C1094      H1103   1.082       .  S
C1095      C1096   1.422       .  A
C1095      S1099   1.795       .  S
C1096      C1097   1.402       .  A
C1097      C1098   1.397       .  A
C1097      H1104   1.080       .  S
C1098      S1100   1.808       .  S
S1099      H1102   1.406       .  S
S1100      H1101   1.408       .  S
C1105      C1106   1.402       .  A
C1105      C1110   1.405       .  A
C1106      C1107   1.415       .  A
C1106      H1115   1.083       .  S
C1107      C1108   1.430       .  A
C1107      S1111   1.802       .  S
C1108      C1109   1.419       .  A
C1109      C1110   1.392       .  A
C1109      H1116   1.079       .  S
C1110      S1112   1.813       .  S
S1111      H1114   1.407       .  S
S1112      H1113   1.402       .  S
C1117      C1118   1.406       .  A
C1117      C1122   1.413       .  A
C1118      C1119   1.406       .  A
C1118      H1127   1.083       .  S
C1119      C1120   1.411       .  A
C1119      S1123   1.805       .  S
C1120      C1121   1.407       .  A
C1121      C1122   1.401       .  A
C1121      H1128   1.084       .  S
C1122      S1124   1.802       .  S
S1123      H1126   1.407       .  S
S1124      H1125   1.406       .  S
C1129      C1130   1.403       .  A
C1129      C1134   1.417       .  A
C1130      C1131   1.399       .  A
C1130      H1139   1.084       .  S
C1131      C1132   1.417       .  A
C1131      S1135   1.801       .  S
C1132      C1133   1.403       .  A
C1133      C1134   1.403       .  A
C1133      H1140   1.082       .  S
C1134      S1136   1.804       .  S
S1135      H1138   1.399       .  S
S1136      H1137   1.407       .  S
C1141      C1142   1.403       .  A
C1141      C1146   1.420       .  A
C1142      C1143   1.403       .  A
C1142      H1151   1.082       .  S
C1143      C1144   1.416       .  A
C1143      S1147   1.806       .  S
C1144      C1145   1.403       .  A
C1145      C1146   1.407       .  A
C1145      H1152   1.084       .  S
C1146      S1148   1.804       .  S
S1147      H1150   1.407       .  S
S1148      H1149   1.404       .  S
C1153      C1154   1.402       .  A
C1153      C1158   1.413       .  A
C1154      C1155   1.406       .  A
C1154      H1163   1.082       .  S
C1155      C1156   1.425       .  A
C1155      S1159   1.811       .  S
C1156      C1157   1.413       .  A
C1157      C1158   1.397       .  A
C1157      H1164   1.073       .  S
C1158      S1160   1.809       .  S
S1159      H1162   1.407       .  S
S1160      H1161   1.402       .  S
C1165      C1166   1.411       .  A
C1165      C1170   1.423       .  A
C1166      C1167   1.399       .  A
C1166      H1175   1.082       .  S
C1167      C1168   1.413       .  A
C1167      S1171   1.801   1_455  S
C1168      C1169   1.401       .  A
C1169      C1170   1.391       .  A
C1169      H1176   1.084       .  S
C1170      S1172   1.805       .  S
S1171      H1174   1.406       .  S
S1172      H1173   1.404       .  S
C1177      C1178   1.403       .  A
C1177      C1182   1.423       .  A
C1178      C1179   1.407       .  A
C1178      H1187   1.084       .  S
C1179      C1180   1.419       .  A
C1179      S1183   1.803       .  S
C1180      C1181   1.403       .  A
C1181      C1182   1.402       .  A
C1181      H1188   1.084   1_556  S
C1182      S1184   1.808       .  S
S1183      H1186   1.407       .  S
S1184      H1185   1.402       .  S
C1189      C1190   1.403       .  A
C1189      C1194   1.417       .  A
C1190      C1191   1.410       .  A
C1190      H1199   1.084       .  S
C1191      C1192   1.424       .  A
C1191      S1195   1.806       .  S
C1192      C1193   1.407       .  A
C1193      C1194   1.405       .  A
C1193      H1200   1.083       .  S
C1194      S1196   1.804       .  S
S1195      H1198   1.403       .  S
S1196      H1197   1.407       .  S
C1201      C1202   1.403       .  A
C1201      C1206   1.413       .  A
C1202      C1203   1.400       .  A
C1202      H1211   1.084       .  S
C1203      C1204   1.413       .  A
C1203      S1207   1.795       .  S
C1204      C1205   1.405       .  A
C1205      C1206   1.401       .  A
C1205      H1212   1.084       .  S
C1206      S1208   1.801       .  S
S1207      H1210   1.402       .  S
S1208      H1209   1.406       .  S
C1213      C1214   1.397       .  A
C1213      C1218   1.410       .  A
C1214      C1215   1.388       .  A
C1214      H1223   1.078       .  S
C1215      C1216   1.415       .  A
C1215      S1219   1.805       .  S
C1216      C1217   1.406       .  A
C1217      C1218   1.402       .  A
C1217      H1224   1.084       .  S
C1218      S1220   1.802       .  S
S1219      H1222   1.407       .  S
S1220      H1221   1.406       .  S
C1225      C1226   1.403       .  A
C1225      C1230   1.414       .  A
C1226      C1227   1.409       .  A
C1226      H1235   1.083       .  S
C1227      C1228   1.417       .  A
C1227      S1231   1.805       .  S
C1228      C1229   1.409       .  A
C1229      C1230   1.399       .  A
C1229      H1236   1.083       .  S
C1230      S1232   1.809       .  S
S1231      H1234   1.406       .  S
S1232      H1233   1.401       .  S
C1237      C1238   1.400       .  A
C1237      C1242   1.413       .  A
C1238      C1239   1.398       .  A
C1238      H1247   1.082       .  S
C1239      C1240   1.416       .  A
C1239      S1243   1.808       .  S
C1240      C1241   1.403       .  A
C1241      C1242   1.404       .  A
C1241      H1248   1.084       .  S
C1242      S1244   1.805       .  S
S1243      H1246   1.398       .  S
S1244      H1245   1.403       .  S
C1249      C1250   1.407       .  A
C1249      C1254   1.412       .  A
C1250      C1251   1.405       .  A
C1250      H1259   1.084       .  S
C1251      C1252   1.411       .  A
C1251      S1255   1.799       .  S
C1252      C1253   1.405       .  A
C1253      C1254   1.400       .  A
C1253      H1260   1.081       .  S
C1254      S1256   1.804       .  S
S1255      H1258   1.405       .  S
S1256      H1257   1.405       .  S
C1261      C1262   1.404       .  A
C1261      C1266   1.411       .  A
C1262      C1263   1.397       .  A
C1262      H1271   1.084       .  S
C1263      C1264   1.410       .  A
C1263      S1267   1.797       .  S
C1264      C1265   1.407       .  A
C1265      C1266   1.398       .  A
C1265      H1272   1.084       .  S
C1266      S1268   1.803   1_455  S
S1267      H1270   1.406       .  S
S1268      H1269   1.406       .  S
C1273      C1274   1.411       .  A
C1273      C1278   1.419       .  A
C1274      C1275   1.395       .  A
C1274      H1283   1.080       .  S
C1275      C1276   1.416       .  A
C1275      S1279   1.807       .  S
C1276      C1277   1.406       .  A
C1277      C1278   1.401       .  A
C1277      H1284   1.081       .  S
C1278      S1280   1.798       .  S
S1279      H1282   1.406       .  S
S1280      H1281   1.407       .  S
C1285      C1286   1.406       .  A
C1285      C1290   1.415       .  A
C1286      C1287   1.396       .  A
C1286      H1295   1.081       .  S
C1287      C1288   1.411       .  A
C1287      S1291   1.803       .  S
C1288      C1289   1.404       .  A
C1289      C1290   1.404       .  A
C1289      H1296   1.077       .  S
C1290      S1292   1.804       .  S
S1291      H1294   1.406       .  S
S1292      H1293   1.405       .  S
C1297      C1298   1.401       .  A
C1297      C1302   1.405       .  A
C1298      C1299   1.395       .  A
C1298      H1307   1.085       .  S
C1299      C1300   1.419       .  A
C1299      S1303   1.803       .  S
C1300      C1301   1.413       .  A
C1301      C1302   1.392       .  A
C1301      H1308   1.083       .  S
C1302      S1304   1.804       .  S
S1303      H1306   1.407       .  S
S1304      H1305   1.406       .  S
C1309      C1310   1.413       .  A
C1309      C1314   1.419       .  A
C1310      C1311   1.399       .  A
C1310      H1319   1.078       .  S
C1311      C1312   1.413       .  A
C1311      S1315   1.813       .  S
C1312      C1313   1.407       .  A
C1313      C1314   1.403       .  A
C1313      H1320   1.075       .  S
C1314      S1316   1.798       .  S
S1315      H1318   1.406       .  S
S1316      H1317   1.405       .  S
C1321      C1322   1.411       .  A
C1321      C1326   1.424       .  A
C1322      C1323   1.414       .  A
C1322      H1331   1.078       .  S
C1323      C1324   1.416       .  A
C1323      S1327   1.805       .  S
C1324      C1325   1.393       .  A
C1325      C1326   1.392       .  A
C1325      H1332   1.085       .  S
C1326      S1328   1.795       .  S
S1327      H1330   1.403       .  S
S1328      H1329   1.408       .  S
C1333      C1334   1.407       .  A
C1333      C1338   1.409       .  A
C1334      C1335   1.402       .  A
C1334      H1343   1.084       .  S
C1335      C1336   1.413       .  A
C1335      S1339   1.803       .  S
C1336      C1337   1.403       .  A
C1337      C1338   1.400       .  A
C1337      H1344   1.084       .  S
C1338      S1340   1.789       .  S
S1339      H1342   1.405       .  S
S1340      H1341   1.405       .  S
C1345      C1346   1.400       .  A
C1345      C1350   1.410       .  A
C1346      C1347   1.406       .  A
C1346      H1355   1.082       .  S
C1347      C1348   1.418       .  A
C1347      S1351   1.800       .  S
C1348      C1349   1.412       .  A
C1349      C1350   1.402       .  A
C1349      H1356   1.084       .  S
C1350      S1352   1.806       .  S
S1351      H1354   1.407       .  S
S1352      H1353   1.403       .  S
C1357      C1358   1.405       .  A
C1357      C1362   1.412       .  A
C1358      C1359   1.401       .  A
C1358      H1367   1.083       .  S
C1359      C1360   1.409       .  A
C1359      S1363   1.801       .  S
C1360      C1361   1.406       .  A
C1361      C1362   1.400       .  A
C1361      H1368   1.084       .  S
C1362      S1364   1.801       .  S
S1363      H1366   1.407       .  S
S1364      H1365   1.406       .  S
C1369      C1370   1.402       .  A
C1369      C1374   1.415       .  A
C1370      C1371   1.382       .  A
C1370      H1379   1.080       .  S
C1371      C1372   1.415       .  A
C1371      S1375   1.800       .  S
C1372      C1373   1.414       .  A
C1373      C1374   1.416       .  A
C1373      H1380   1.081       .  S
C1374      S1376   1.804       .  S
S1375      H1378   1.403       .  S
S1376      H1377   1.407   1_556  S
C1381      C1382   1.396       .  A
C1381      C1386   1.404       .  A
C1382      C1383   1.396       .  A
C1382      H1391   1.080       .  S
C1383      C1384   1.423       .  A
C1383      S1387   1.810       .  S
C1384      C1385   1.414       .  A
C1385      C1386   1.395       .  A
C1385      H1392   1.075       .  S
C1386      S1388   1.806       .  S
S1387      H1390   1.407       .  S
S1388      H1389   1.406       .  S
C1393      C1394   1.403       .  A
C1393      C1398   1.410       .  A
C1394      C1395   1.411       .  A
C1394      H1403   1.083       .  S
C1395      C1396   1.423       .  A
C1395      S1399   1.807       .  S
C1396      C1397   1.412       .  A
C1397      C1398   1.394       .  A
C1397      H1404   1.079       .  S
C1398      S1400   1.806       .  S
S1399      H1402   1.407       .  S
S1400      H1401   1.403       .  S
C1405      C1406   1.414       .  A
C1405      C1410   1.422       .  A
C1406      C1407   1.391       .  A
C1406      H1415   1.075       .  S
C1407      C1408   1.407       .  A
C1407      S1411   1.810       .  S
C1408      C1409   1.404       .  A
C1409      C1410   1.408       .  A
C1409      H1416   1.083       .  S
C1410      S1412   1.809       .  S
S1411      H1414   1.401       .  S
S1412      H1413   1.407       .  S
C1417      C1418   1.403       .  A
C1417      C1422   1.412       .  A
C1418      C1419   1.395       .  A
C1418      H1427   1.084       .  S
C1419      C1420   1.412       .  A
C1419      S1423   1.799       .  S
C1420      C1421   1.403       .  A
C1421      C1422   1.398       .  A
C1421      H1428   1.084       .  S
C1422      S1424   1.796       .  S
S1423      H1426   1.406       .  S
S1424      H1425   1.404       .  S
C1429      C1430   1.397       .  A
C1429      C1434   1.408       .  A
C1430      C1431   1.399       .  A
C1430      H1439   1.082       .  S
C1431      C1432   1.422       .  A
C1431      S1435   1.812       .  S
C1432      C1433   1.413       .  A
C1433      C1434   1.398       .  A
C1433      H1440   1.081       .  S
C1434      S1436   1.805       .  S
S1435      H1438   1.407       .  S
S1436      H1437   1.405       .  S
C1441      C1442   1.411       .  A
C1441      C1446   1.428       .  A
C1442      C1443   1.395       .  A
C1442      H1451   1.084       .  S
C1443      C1444   1.409       .  A
C1443      S1447   1.804       .  S
C1444      C1445   1.398       .  A
C1445      C1446   1.397       .  A
C1445      H1452   1.085       .  S
C1446      S1448   1.801       .  S
S1447      H1450   1.405       .  S
S1448      H1449   1.407       .  S
C1453      C1454   1.415       .  A
C1453      C1458   1.426       .  A
C1454      C1455   1.396       .  A
C1454      H1463   1.074       .  S
C1455      C1456   1.410       .  A
C1455      S1459   1.809       .  S
C1456      C1457   1.402       .  A
C1457      C1458   1.405       .  A
C1457      H1464   1.083       .  S
C1458      S1460   1.811       .  S
S1459      H1462   1.404       .  S
S1460      H1461   1.407       .  S
C1465      C1466   1.409       .  A
C1465      C1470   1.429       .  A
C1466      C1467   1.404       .  A
C1466      H1475   1.083       .  S
C1467      C1468   1.416       .  A
C1467      S1471   1.800       .  S
C1468      C1469   1.399       .  A
C1469      C1470   1.396       .  A
C1469      H1476   1.084       .  S
C1470      S1472   1.804       .  S
S1471      H1474   1.407       .  S
S1472      H1473   1.406       .  S
C1477      C1478   1.409       .  A
C1477      C1482   1.413       .  A
C1478      C1479   1.407       .  A
C1478      H1487   1.083   1_455  S
C1479      C1480   1.417       .  A
C1479      S1483   1.799       .  S
C1480      C1481   1.406       .  A
C1481      C1482   1.388       .  A
C1481      H1488   1.079       .  S
C1482      S1484   1.808       .  S
S1483      H1486   1.407       .  S
S1484      H1485   1.407       .  S
C1489      C1490   1.403       .  A
C1489      C1494   1.410       .  A
C1490      C1491   1.394       .  A
C1490      H1499   1.073       .  S
C1491      C1492   1.405       .  A
C1491      S1495   1.807       .  S
C1492      C1493   1.399       .  A
C1493      C1494   1.394       .  A
C1493      H1500   1.079       .  S
C1494      S1496   1.803       .  S
S1495      H1498   1.408       .  S
S1496      H1497   1.407       .  S
C1501      C1502   1.404       .  A
C1501      C1506   1.414       .  A
C1502      C1503   1.405       .  A
C1502      H1511   1.083       .  S
C1503      C1504   1.412       .  A
C1503      S1507   1.800       .  S
C1504      C1505   1.407       .  A
C1505      C1506   1.402       .  A
C1505      H1512   1.083       .  S
C1506      S1508   1.803       .  S
S1507      H1510   1.407       .  S
S1508      H1509   1.406       .  S
C1513      C1514   1.405       .  A
C1513      C1518   1.413       .  A
C1514      C1515   1.413       .  A
C1514      H1523   1.083       .  S
C1515      C1516   1.417       .  A
C1515      S1519   1.804       .  S
C1516      C1517   1.408       .  A
C1517      C1518   1.392       .  A
C1517      H1524   1.083       .  S
C1518      S1520   1.812       .  S
S1519      H1522   1.407       .  S
S1520      H1521   1.402       .  S
C1525      C1526   1.399       .  A
C1525      C1530   1.410       .  A
C1526      C1527   1.397       .  A
C1526      H1535   1.079       .  S
C1527      C1528   1.418       .  A
C1527      S1531   1.806       .  S
C1528      C1529   1.406       .  A
C1529      C1530   1.396       .  A
C1529      H1536   1.083       .  S
C1530      S1532   1.803       .  S
S1531      H1534   1.400       .  S
S1532      H1533   1.403       .  S
C1537      C1538   1.410       .  A
C1537      C1542   1.410       .  A
C1538      C1539   1.410       .  A
C1538      H1547   1.080       .  S
C1539      C1540   1.418       .  A
C1539      S1543   1.799       .  S
C1540      C1541   1.412       .  A
C1541      C1542   1.391       .  A
C1541      H1548   1.077       .  S
C1542      S1544   1.814       .  S
S1543      H1546   1.407       .  S
S1544      H1545   1.407       .  S
C1549      C1550   1.406       .  A
C1549      C1554   1.414       .  A
C1550      C1551   1.406       .  A
C1550      H1559   1.084       .  S
C1551      C1552   1.413       .  A
C1551      S1555   1.798       .  S
C1552      C1553   1.404       .  A
C1553      C1554   1.398       .  A
C1553      H1560   1.084       .  S
C1554      S1556   1.802       .  S
S1555      H1558   1.406       .  S
S1556      H1557   1.404       .  S
C1561      C1562   1.404       .  A
C1561      C1566   1.416       .  A
C1562      C1563   1.404       .  A
C1562      H1571   1.084       .  S
C1563      C1564   1.415       .  A
C1563      S1567   1.808       .  S
C1564      C1565   1.402       .  A
C1565      C1566   1.401       .  A
C1565      H1572   1.084       .  S
C1566      S1568   1.807       .  S
S1567      H1570   1.400       .  S
S1568      H1569   1.400       .  S
C1573      C1574   1.402       .  A
C1573      C1578   1.425       .  A
C1574      C1575   1.402       .  A
C1574      H1583   1.081       .  S
C1575      C1576   1.419       .  A
C1575      S1579   1.787       .  S
C1576      C1577   1.403       .  A
C1577      C1578   1.393       .  A
C1577      H1584   1.084       .  S
C1578      S1580   1.808       .  S
S1579      H1582   1.407       .  S
S1580      H1581   1.408       .  S
C1585      C1586   1.415       .  A
C1585      C1590   1.411       .  A
C1586      C1587   1.414       .  A
C1586      H1595   1.082       .  S
C1587      C1588   1.419       .  A
C1587      S1591   1.798       .  S
C1588      C1589   1.406       .  A
C1589      C1590   1.383       .  A
C1589      H1596   1.078       .  S
C1590      S1592   1.795       .  S
S1591      H1594   1.406       .  S
S1592      H1593   1.407       .  S
C1597      C1598   1.407       .  A
C1597      C1602   1.411       .  A
C1598      C1599   1.413       .  A
C1598      H1607   1.084       .  S
C1599      C1600   1.421       .  A
C1599      S1603   1.799       .  S
C1600      C1601   1.410       .  A
C1601      C1602   1.388       .  A
C1601      H1608   1.082       .  S
C1602      S1604   1.810       .  S
S1603      H1606   1.406       .  S
S1604      H1605   1.400       .  S
C1609      C1610   1.402       .  A
C1609      C1614   1.417       .  A
C1610      C1611   1.401       .  A
C1610      H1619   1.083       .  S
C1611      C1612   1.411       .  A
C1611      S1615   1.804       .  S
C1612      C1613   1.399       .  A
C1613      C1614   1.400       .  A
C1613      H1620   1.084       .  S
C1614      S1616   1.804       .  S
S1615      H1618   1.407       .  S
S1616      H1617   1.406       .  S
C1621      C1622   1.401       .  A
C1621      C1626   1.414       .  A
C1622      C1623   1.400       .  A
C1622      H1631   1.079       .  S
C1623      C1624   1.412       .  A
C1623      S1627   1.803       .  S
C1624      C1625   1.404       .  A
C1625      C1626   1.399       .  A
C1625      H1632   1.084       .  S
C1626      S1628   1.803       .  S
S1627      H1630   1.407       .  S
S1628      H1629   1.406       .  S
C1633      C1634   1.414       .  A
C1633      C1638   1.421       .  A
C1634      C1635   1.403       .  A
C1634      H1643   1.083       .  S
C1635      C1636   1.414       .  A
C1635      S1639   1.803       .  S
C1636      C1637   1.405       .  A
C1637      C1638   1.394       .  A
C1637      H1644   1.084       .  S
C1638      S1640   1.806       .  S
S1639      H1642   1.405       .  S
S1640      H1641   1.406       .  S
C1645      C1646   1.415       .  A
C1645      C1650   1.428       .  A
C1646      C1647   1.395       .  A
C1646      H1655   1.080       .  S
C1647      C1648   1.408       .  A
C1647      S1651   1.809       .  S
C1648      C1649   1.399       .  A
C1649      C1650   1.410       .  A
C1649      H1656   1.083       .  S
C1650      S1652   1.801       .  S
S1651      H1654   1.400       .  S
S1652      H1653   1.407       .  S
C1657      C1658   1.403       .  A
C1657      C1662   1.417       .  A
C1658      C1659   1.401       .  A
C1658      H1667   1.079       .  S
C1659      C1660   1.414       .  A
C1659      S1663   1.804       .  S
C1660      C1661   1.402       .  A
C1661      C1662   1.402       .  A
C1661      H1668   1.084       .  S
C1662      S1664   1.800       .  S
S1663      H1666   1.406       .  S
S1664      H1665   1.407       .  S
C1669      C1670   1.397       .  A
C1669      C1674   1.413       .  A
C1670      C1671   1.394       .  A
C1670      H1679   1.081       .  S
C1671      C1672   1.416       .  A
C1671      S1675   1.807       .  S
C1672      C1673   1.403       .  A
C1673      C1674   1.396       .  A
C1673      H1680   1.084       .  S
C1674      S1676   1.804       .  S
S1675      H1678   1.404       .  S
S1676      H1677   1.402       .  S
C1681      C1682   1.415       .  A
C1681      C1686   1.419       .  A
C1682      C1683   1.397       .  A
C1682      H1691   1.078       .  S
C1683      C1684   1.408       .  A
C1683      S1687   1.810       .  S
C1684      C1685   1.399       .  A
C1685      C1686   1.400       .  A
C1685      H1692   1.082       .  S
C1686      S1688   1.806       .  S
S1687      H1690   1.401       .  S
S1688      H1689   1.407       .  S
C1693      C1694   1.403       .  A
C1693      C1698   1.409       .  A
C1694      C1695   1.402       .  A
C1694      H1703   1.083       .  S
C1695      C1696   1.411       .  A
C1695      S1699   1.805       .  S
C1696      C1697   1.402       .  A
C1697      C1698   1.399       .  A
C1697      H1704   1.083       .  S
C1698      S1700   1.801       .  S
S1699      H1702   1.407       .  S
S1700      H1701   1.406       .  S
C1705      C1706   1.404       .  A
C1705      C1710   1.411       .  A
C1706      C1707   1.400       .  A
C1706      H1715   1.083       .  S
C1707      C1708   1.408       .  A
C1707      S1711   1.805       .  S
C1708      C1709   1.401       .  A
C1709      C1710   1.402       .  A
C1709      H1716   1.083       .  S
C1710      S1712   1.799       .  S
S1711      H1714   1.407       .  S
S1712      H1713   1.406       .  S
C1717      C1718   1.404       .  A
C1717      C1722   1.411       .  A
C1718      C1719   1.400       .  A
C1718      H1727   1.084       .  S
C1719      C1720   1.414       .  A
C1719      S1723   1.802       .  S
C1720      C1721   1.405       .  A
C1721      C1722   1.407       .  A
C1721      H1728   1.083       .  S
C1722      S1724   1.802       .  S
S1723      H1726   1.406       .  S
S1724      H1725   1.407       .  S
C1729      C1730   1.404       .  A
C1729      C1734   1.414       .  A
C1730      C1731   1.395       .  A
C1730      H1739   1.084       .  S
C1731      C1732   1.411       .  A
C1731      S1735   1.802       .  S
C1732      C1733   1.402       .  A
C1733      C1734   1.402       .  A
C1733      H1740   1.080       .  S
C1734      S1736   1.804       .  S
S1735      H1738   1.406       .  S
S1736      H1737   1.406       .  S
C1741      C1742   1.403       .  A
C1741      C1746   1.413       .  A
C1742      C1743   1.406       .  A
C1742      H1751   1.080       .  S
C1743      C1744   1.415       .  A
C1743      S1747   1.803       .  S
C1744      C1745   1.401       .  A
C1745      C1746   1.394       .  A
C1745      H1752   1.077       .  S
C1746      S1748   1.805       .  S
S1747      H1750   1.406       .  S
S1748      H1749   1.406       .  S
C1753      C1754   1.413       .  A
C1753      C1758   1.426       .  A
C1754      C1755   1.395       .  A
C1754      H1763   1.073       .  S
C1755      C1756   1.406       .  A
C1755      S1759   1.807       .  S
C1756      C1757   1.397       .  A
C1757      C1758   1.403       .  A
C1757      H1764   1.083       .  S
C1758      S1760   1.810       .  S
S1759      H1762   1.405       .  S
S1760      H1761   1.406       .  S
C1765      C1766   1.406       .  A
C1765      C1770   1.416       .  A
C1766      C1767   1.394       .  A
C1766      H1775   1.084       .  S
C1767      C1768   1.411       .  A
C1767      S1771   1.802       .  S
C1768      C1769   1.404       .  A
C1769      C1770   1.404       .  A
C1769      H1776   1.084       .  S
C1770      S1772   1.799       .  S
S1771      H1774   1.400       .  S
S1772      H1773   1.406       .  S
C1777      C1778   1.406       .  A
C1777      C1782   1.419       .  A
C1778      C1779   1.383       .  A
C1778      H1787   1.082       .  S
C1779      C1780   1.410       .  A
C1779      S1783   1.794       .  S
C1780      C1781   1.412       .  A
C1781      C1782   1.411       .  A
C1781      H1788   1.083       .  S
C1782      S1784   1.798       .  S
S1783      H1786   1.408       .  S
S1784      H1785   1.407       .  S
C1789      C1790   1.416       .  A
C1789      C1794   1.424       .  A
C1790      C1791   1.399       .  A
C1790      H1799   1.077       .  S
C1791      C1792   1.411       .  A
C1791      S1795   1.807       .  S
C1792      C1793   1.403       .  A
C1793      C1794   1.406       .  A
C1793      H1800   1.082       .  S
C1794      S1796   1.808       .  S
S1795      H1798   1.405       .  S
S1796      H1797   1.408       .  S
C1801      C1802   1.401       .  A
C1801      C1806   1.415       .  A
C1802      C1803   1.398       .  A
C1802      H1811   1.084       .  S
C1803      C1804   1.413       .  A
C1803      S1807   1.802       .  S
C1804      C1805   1.403       .  A
C1805      C1806   1.398       .  A
C1805      H1812   1.083       .  S
C1806      S1808   1.806       .  S
S1807      H1810   1.406       .  S
S1808      H1809   1.400       .  S
C1813      C1814   1.401       .  A
C1813      C1818   1.414       .  A
C1814      C1815   1.396       .  A
C1814      H1823   1.082       .  S
C1815      C1816   1.411       .  A
C1815      S1819   1.805       .  S
C1816      C1817   1.401       .  A
C1817      C1818   1.397       .  A
C1817      H1824   1.084       .  S
C1818      S1820   1.808       .  S
S1819      H1822   1.403       .  S
S1820      H1821   1.400       .  S
C1825      C1826   1.401       .  A
C1825      C1830   1.411       .  A
C1826      C1827   1.400       .  A
C1826      H1835   1.082       .  S
C1827      C1828   1.418       .  A
C1827      S1831   1.806       .  S
C1828      C1829   1.407       .  A
C1829      C1830   1.398       .  A
C1829      H1836   1.083       .  S
C1830      S1832   1.804       .  S
S1831      H1834   1.404       .  S
S1832      H1833   1.406       .  S
C1837      C1838   1.400       .  A
C1837      C1842   1.409       .  A
C1838      C1839   1.405       .  A
C1838      H1847   1.083       .  S
C1839      C1840   1.417       .  A
C1839      S1843   1.808       .  S
C1840      C1841   1.404       .  A
C1841      C1842   1.403       .  A
C1841      H1848   1.082       .  S
C1842      S1844   1.807       .  S
S1843      H1846   1.407       .  S
S1844      H1845   1.407       .  S
C1849      C1850   1.411       .  A
C1849      C1854   1.417       .  A
C1850      C1851   1.394       .  A
C1850      H1859   1.081       .  S
C1851      C1852   1.414       .  A
C1851      S1855   1.806       .  S
C1852      C1853   1.409       .  A
C1853      C1854   1.404       .  A
C1853      H1860   1.081       .  S
C1854      S1856   1.799       .  S
S1855      H1858   1.407       .  S
S1856      H1857   1.405       .  S
C1861      C1862   1.416       .  A
C1861      C1866   1.421       .  A
C1862      C1863   1.401       .  A
C1862      H1871   1.081       .  S
C1863      C1864   1.402       .  A
C1863      S1867   1.806       .  S
C1864      C1865   1.398       .  A
C1865      C1866   1.400       .  A
C1865      H1872   1.082       .  S
C1866      S1868   1.809       .  S
S1867      H1870   1.407       .  S
S1868      H1869   1.407       .  S
C1873      C1874   1.410       .  A
C1873      C1878   1.419       .  A
C1874      C1875   1.392       .  A
C1874      H1883   1.081       .  S
C1875      C1876   1.415       .  A
C1875      S1879   1.806       .  S
C1876      C1877   1.408       .  A
C1877      C1878   1.408       .  A
C1877      H1884   1.081       .  S
C1878      S1880   1.806       .  S
S1879      H1882   1.407       .  S
S1880      H1881   1.407       .  S
C1885      C1886   1.411       .  A
C1885      C1890   1.420       .  A
C1886      C1887   1.398       .  A
C1886      H1895   1.082       .  S
C1887      C1888   1.411       .  A
C1887      S1891   1.811       .  S
C1888      C1889   1.398       .  A
C1889      C1890   1.400       .  A
C1889      H1896   1.084       .  S
C1890      S1892   1.795       .  S
S1891      H1894   1.402       .  S
S1892      H1893   1.406       .  S
C1897      C1898   1.412       .  A
C1897      C1902   1.424       .  A
C1898      C1899   1.406       .  A
C1898      H1907   1.083       .  S
C1899      C1900   1.417       .  A
C1899      S1903   1.801       .  S
C1900      C1901   1.405       .  A
C1901      C1902   1.396       .  A
C1901      H1908   1.083       .  S
C1902      S1904   1.807       .  S
S1903      H1906   1.405       .  S
S1904      H1905   1.405       .  S
