geometry optimzed in LAMMPS
_audit_creation_date              2020-12-01 
_audit_creation_method            'lammps2cif' 
_symmetry_space_group_name_H-M    'P1' 
_symmetry_Int_Tables_number       1 
_symmetry_cell_setting            triclinic 
loop_ 
_symmetry_equiv_pos_as_xyz 
  x,y,z 
_cell_length_a                    45.83229117 
_cell_length_b                    45.75824151894661 
_cell_length_c                    33.612249042785585 
_cell_angle_alpha                 89.82315386668326 
_cell_angle_beta                  90.05342656258456 
_cell_angle_gamma                 126.33043583707192 
loop_ 
_atom_site_label 
_atom_site_type_symbol 
_atom_site_fract_x 
_atom_site_fract_y 
_atom_site_fract_z 
_atom_site_charge 
C1          C  0.52789701  0.84227611  0.99971866     0.03200
C2          C  0.52721980  0.85792271  0.29722929    -0.12900
C3          C  0.52206993  0.88527676  0.29748224     0.00700
C4          C  0.51742981  0.89705356  0.33378111    -0.11400
C5          C  0.51910284  0.88240932  0.03631191     0.03200
C6          C  0.52393005  0.85492609  0.03581062    -0.10900
H7          H  0.53145094  0.84946111  0.26908491     0.08800
H8          H  0.51592227  0.91982436  0.33429563     0.06300
H9          H  0.52705713  0.84516830  0.06376510     0.06200
C10         C  0.37844237  0.92077446  0.32945589     0.03200
C11         C  0.39780712  0.93728098  0.29410977    -0.12900
C12         C  0.43521242  0.96428708  0.29488377     0.00700
C13         C  0.45325619  0.97665561  0.33146781    -0.11400
C14         C  0.43409019  0.96047631  0.03360589     0.03200
C15         C  0.39682935  0.93273426  0.03249491    -0.10900
H16         H  0.38433643  0.92711072  0.26562822     0.08800
H17         H  0.48252301  0.99590599  0.33209378     0.06300
H18         H  0.38278466  0.91876144  0.05981022     0.06200
C19         C  0.52820076  0.90577561  0.26074721     0.42600
N20         N  0.52083078  0.92962382  0.21041272     0.01500
C21         C  0.65490043  0.06555489  0.08857080    -0.06400
H22         H  0.66859685  0.09628229  0.24188481     0.06900
C23         C  0.55446740  0.08380678  0.23540901    -0.06800
Co24       Co  0.58962023  0.97761597  0.16439164     0.74200
N25         N  0.63404823  0.04916344  0.20504094    -0.26000
Co26       Co  0.61444230  0.06541610  0.16145686     0.74100
C27         C  0.58951795  0.10676749  0.25474656     0.42700
N28         N  0.49033441  0.99590064  0.20774817     0.01100
N29         N  0.59468325  0.08194876  0.20452965     0.01200
N30         N  0.63766639  0.00772604  0.08901277    -0.46800
H31         H  0.58816963  0.93368678  0.24588868     0.06900
N32         N  0.62434018  0.01566883  0.20675739     0.01500
N33         N  0.59336119  0.08026000  0.11742603     0.01200
C34         C  0.58741286  0.10548791  0.06767121     0.42800
N35         N  0.48089191  0.96245551  0.20824232    -0.25400
C36         C  0.55984917  0.92501869  0.09322621    -0.06300
N37         N  0.50357623  0.90780706  0.24139612    -0.46500
N38         N  0.61137019  0.10271892  0.08722194    -0.46700
C39         C  0.52506496  0.90149655  0.07367177     0.42600
N40         N  0.62326580  0.01383179  0.11919797     0.01400
N41         N  0.47945668  0.96028126  0.12199782    -0.25400
N42         N  0.55523239  0.94221880  0.20896429    -0.25900
N43         N  0.48927722  0.99385390  0.12022661     0.01100
H44         H  0.44418694  0.91298455  0.08557526     0.07000
H45         H  0.52704424  0.07737822  0.08089693     0.07000
N46         N  0.63270863  0.04726443  0.11910184    -0.26000
N47         N  0.56026067  0.06931181  0.20472711    -0.25600
N48         N  0.51923935  0.92729583  0.12260840     0.01500
C49         C  0.65883510  0.04208976  0.25677948     0.42800
C50         C  0.45879261  0.94455355  0.23905352    -0.06800
N51         N  0.55897755  0.06775368  0.11827218    -0.25600
H52         H  0.52885260  0.07836379  0.24356371     0.07000
N53         N  0.63831989  0.01005672  0.23778618    -0.46800
H54         H  0.44660406  0.91662782  0.24705215     0.07000
C55         C  0.45377176  0.96715534  0.07078828     0.42700
C56         C  0.56231386  0.92837120  0.23939900    -0.06300
Co57       Co  0.49924793  0.94403898  0.16585201     0.73800
N58         N  0.47603384  0.00235091  0.23773576    -0.46500
C59         C  0.65799531  0.03942485  0.06887060     0.42900
N60         N  0.50100729  0.90432907  0.09293275    -0.46500
Co61       Co  0.52418670  0.03204578  0.16270435     0.73900
C62         C  0.55266516  0.08234360  0.08788244    -0.06800
C63         C  0.65638709  0.06813052  0.23526959    -0.06400
N64         N  0.55369783  0.94005887  0.12288608    -0.25900
N65         N  0.61328155  0.10438703  0.23436940    -0.46700
H66         H  0.66708480  0.09356324  0.08099438     0.07000
C67         C  0.45661887  0.94120714  0.09205289    -0.06800
Cl68       Cl  0.55682923  0.00475101  0.16354326    -0.49800
C69         C  0.45581018  0.97097517  0.25841611     0.42700
H70         H  0.58560049  0.93041824  0.08589508     0.06900
N71         N  0.47484839  0.99931801  0.08952371    -0.46500
C72         C  0.59615832  0.17231266  0.32698513     0.03200
C73         C  0.59775440  0.15746099  0.29134102    -0.12900
C74         C  0.59697415  0.12653031  0.29176471     0.00700
C75         C  0.59616556  0.11090312  0.32797248    -0.11400
C76         C  0.59464236  0.12551776  0.03047654     0.03200
C77         C  0.59471770  0.15623231  0.02996641    -0.10900
H78         H  0.59754441  0.16874870  0.26301678     0.08800
H79         H  0.59389038  0.08592104  0.32815452     0.06300
H80         H  0.59158439  0.16624012  0.05762249     0.06200
C81         C  0.73417509  0.09158199  0.33026139     0.03200
C82         C  0.71561903  0.07787670  0.29416333    -0.12900
C83         C  0.67879960  0.04915861  0.29364678     0.00700
C84         C  0.66030415  0.03295704  0.32939966    -0.11400
C85         C  0.67859632  0.04674411  0.03238545     0.03200
C86         C  0.71556851  0.07556307  0.03264830    -0.10900
H87         H  0.72934032  0.09087173  0.26637198     0.08800
H88         H  0.63117667  0.01267048  0.32915012     0.06300
H89         H  0.72894964  0.08768921  0.06077368     0.06200
C90         C  0.08447013  0.60342200  0.25970555     0.42600
N91         N  0.09166500  0.57981106  0.20957927     0.01500
C92         C  0.96079202  0.43816189  0.09273773    -0.06400
H93         H  0.94983969  0.41198754  0.25218855     0.06900
C94         C  0.06772713  0.43127857  0.24539137    -0.06800
Co95       Co  0.02239273  0.52717572  0.16693207     0.74200
N96         N  0.98171127  0.45739355  0.21180779    -0.26000
Co97       Co  0.00284593  0.44163834  0.16895659     0.74100
C98         C  0.03263417  0.40600454  0.26427453     0.42700
N99         N  0.12802005  0.51851565  0.21155698     0.01100
N100        N  0.02541371  0.42869886  0.21290779     0.01200
N101        N  0.97343063  0.49405639  0.09503359    -0.46800
H102        H  0.02299457  0.57033146  0.24964812     0.06900
N103        N  0.98868111  0.48980394  0.21043801     0.01500
N104        N  0.02530881  0.42743209  0.12679455     0.01200
C105        C  0.03221039  0.40328989  0.07697227     0.42800
N106        N  0.13508371  0.55097487  0.21168353    -0.25400
C107        C  0.04995932  0.57652751  0.09079509    -0.06300
N108        N  0.10937156  0.60328859  0.23868752    -0.46500
N109        N  0.00745953  0.40371357  0.09791991    -0.46700
C110        C  0.08528337  0.60200114  0.07236457     0.42600
N111        N  0.98917073  0.48905748  0.12443457     0.01400
N112        N  0.13512933  0.54996560  0.12433710    -0.25400
N113        N  0.05662298  0.56469656  0.21009315    -0.25900
N114        N  0.12810581  0.51752878  0.12558731     0.01100
H115        H  0.16656441  0.59524527  0.08370762     0.07000
H116        H  0.09375698  0.43647127  0.08674988     0.07000
N117        N  0.98201236  0.45654489  0.12426538    -0.26000
N118        N  0.06044901  0.44372825  0.21348320    -0.25600
N119        N  0.09192408  0.57886860  0.12359484     0.01500
C120        C  0.95381944  0.46413074  0.26079164     0.42800
C121        C  0.15638093  0.56956061  0.24303517    -0.06800
N122        N  0.06034088  0.44251298  0.12618815    -0.25600
H123        H  0.09402800  0.43852808  0.25381139     0.07000
N124        N  0.97245305  0.49493537  0.23914949    -0.46800
H125        H  0.16682106  0.59700731  0.25109930     0.07000
C126        C  0.16232574  0.54301759  0.07485636     0.42700
C127        C  0.04934235  0.57767502  0.24129580    -0.06300
Co128      Co  0.11419902  0.56575769  0.16731577     0.73800
N129        N  0.14387267  0.51370004  0.24096691    -0.46500
C130        C  0.95501419  0.46317728  0.07391789     0.42900
N131        N  0.10992903  0.60201376  0.09412349    -0.46500
Co132      Co  0.09469492  0.48024858  0.16918301     0.73900
C133        C  0.06745293  0.42923747  0.09513366    -0.06800
C134        C  0.96017118  0.43925290  0.24322356    -0.06400
N135        N  0.05690664  0.56385022  0.12275095    -0.25900
N136        N  0.00772586  0.40573952  0.24263278    -0.46700
H137        H  0.95030354  0.41073316  0.08453026     0.07000
C138        C  0.15632345  0.56801447  0.09270218    -0.06800
Cl139      Cl  0.05851423  0.50368200  0.16810943    -0.49800
C140        C  0.16223888  0.54469534  0.26189835     0.42700
H141        H  0.02374738  0.56935449  0.08208538     0.06900
N142        N  0.14397897  0.51227706  0.09658237    -0.46500
C143        C  0.21994443  0.53742735  0.00049872     0.03200
C144        C  0.20692160  0.54168013  0.29817153    -0.12900
C145        C  0.18121929  0.54888696  0.29873483     0.00700
C146        C  0.16877429  0.55253299  0.00175270    -0.11400
C147        C  0.18063944  0.54695614  0.03746630     0.03200
C148        C  0.20628539  0.53963779  0.03677630    -0.10900
H149        H  0.21604966  0.53843974  0.26988735     0.08800
H150        H  0.14742950  0.55614092  0.00213962     0.06300
H151        H  0.21457090  0.53431751  0.06444464     0.06200
C152        C  0.97835496  0.32926561  0.00278696     0.03200
C153        C  0.99403628  0.34837795  0.30047090    -0.12900
C154        C  0.02379880  0.38489463  0.30090075     0.00700
C155        C  0.03939575  0.40220652  0.00393784    -0.11400
C156        C  0.02352868  0.38338750  0.03971597     0.03200
C157        C  0.99342210  0.34691638  0.03901422    -0.10900
H158        H  0.98168923  0.33544188  0.27225203     0.08800
H159        H  0.06094717  0.43107946  0.00444666     0.06300
H160        H  0.98002962  0.33319634  0.06668022     0.06200
C161        C  0.89607743  0.46949609  0.00228649     0.03200
C162        C  0.90961367  0.46718390  0.29925056    -0.12900
C163        C  0.93568481  0.46038302  0.29837584     0.00700
C164        C  0.94801506  0.45527103  0.00069460    -0.11400
C165        C  0.93585431  0.45912900  0.03713664     0.03200
C166        C  0.90989954  0.46608977  0.03783931    -0.10900
H167        H  0.90074061  0.47182259  0.27158510     0.08800
H168        H  0.96946076  0.45180905  0.00014082     0.06300
H169        H  0.90092536  0.46942179  0.06617141     0.06200
C170        C  0.13835615  0.67833400  0.99934975     0.03200
C171        C  0.12222378  0.66015429  0.29691518    -0.12900
C172        C  0.09305734  0.62343221  0.29684293     0.00700
C173        C  0.07824185  0.60487804  0.99955570    -0.11400
C174        C  0.09433104  0.62278703  0.03552368     0.03200
C175        C  0.12416403  0.65945421  0.03533579    -0.10900
H176        H  0.13367614  0.67398911  0.26875396     0.08800
H177        H  0.05700550  0.57593886  0.33282819     0.06300
H178        H  0.13768153  0.67256531  0.06308268     0.06200
C179        C  0.65402741  0.52644158  0.07369252     0.42600
N180        N  0.63023830  0.53452551  0.12313323     0.01500
C181        C  0.49124446  0.40372022  0.24398871    -0.06400
H182        H  0.46318507  0.39008035  0.08449346     0.06900
C183        C  0.47982014  0.50803331  0.09207603    -0.06800
Co184      Co  0.57902287  0.46542469  0.16761475     0.74200
N185        N  0.50868532  0.42320773  0.12421636    -0.26000
Co186      Co  0.49292642  0.44427833  0.16723805     0.74100
C187        C  0.45596447  0.47334909  0.07226072     0.42700
N188        N  0.56774419  0.56956561  0.12258033     0.01100
N189        N  0.47912557  0.46604052  0.12287630     0.01200
N190        N  0.54742603  0.41737464  0.24068502    -0.46800
H191        H  0.62313333  0.46566109  0.08730070     0.06900
N192        N  0.54138349  0.43100647  0.12517835     0.01500
N193        N  0.47883765  0.46673878  0.21010563     0.01200
C194        C  0.45457045  0.47420395  0.25936204     0.42800
N195        N  0.60042891  0.57725294  0.12207663    -0.25400
C196        C  0.62985185  0.49274300  0.24040884    -0.06300
N197        N  0.65292264  0.55165322  0.09286384    -0.46500
N198        N  0.45602595  0.44930873  0.24012838    -0.46700
C199        C  0.65404717  0.52714590  0.26052718     0.42600
N200        N  0.54160713  0.43228379  0.21104889     0.01400
N201        N  0.60041638  0.57813567  0.20963632    -0.25400
N202        N  0.61604020  0.49961403  0.12412472    -0.25900
N203        N  0.56776799  0.57054174  0.20877475     0.01100
H204        H  0.64612803  0.61123215  0.24904066     0.07000
H205        H  0.48528496  0.53510249  0.24632202     0.07000
N206        N  0.50889481  0.42448979  0.21180710    -0.26000
N207        N  0.49318304  0.50093284  0.12292131    -0.25600
N208        N  0.63021909  0.53509089  0.21085908     0.01500
C209        C  0.51597002  0.39533024  0.07557822     0.42800
C210        C  0.61849771  0.59854709  0.09037372    -0.06800
N211        N  0.49286829  0.50160968  0.20926390    -0.25600
H212        H  0.48631313  0.53422855  0.08430762     0.07000
N213        N  0.54679070  0.41483066  0.09677529    -0.46800
H214        H  0.64595500  0.60940619  0.08196807     0.07000
C215        C  0.59364040  0.60643121  0.25832156     0.42700
C216        C  0.62968108  0.49201433  0.09410799    -0.06300
Co217      Co  0.61628266  0.55710843  0.16647073     0.73800
N218        N  0.56237221  0.58508058  0.09313470    -0.46500
C219        C  0.51700444  0.39902919  0.26266924     0.42900
N220        N  0.65293245  0.55234562  0.24102580    -0.46500
Co221      Co  0.53009425  0.53606083  0.16592049     0.73900
C222        C  0.47891968  0.50886282  0.23928976    -0.06800
C223        C  0.49062435  0.40111448  0.09316707    -0.06400
N224        N  0.61614884  0.50022030  0.21030432    -0.25900
N225        N  0.45672749  0.44839476  0.09264458    -0.46700
H226        H  0.46389177  0.39295184  0.25275892     0.07000
C227        C  0.61866899  0.60029086  0.24056614    -0.06800
Cl228      Cl  0.55459336  0.50074995  0.16681695    -0.49800
C229        C  0.59314813  0.60380406  0.07167771     0.42700
H230        H  0.62338910  0.46643661  0.24748398     0.06900
N231        N  0.56263098  0.58693283  0.23729618    -0.46500
C232        C  0.53040258  0.34471645  0.33348702     0.03200
C233        C  0.52515824  0.35571824  0.03668372    -0.12900
C234        C  0.51348760  0.37798280  0.03792222     0.00700
C235        C  0.50663715  0.38907947  0.33573206    -0.11400
C236        C  0.51369246  0.37977081  0.29917687     0.03200
C237        C  0.52513615  0.35742339  0.29824001    -0.10900
H238        H  0.53061224  0.34740290  0.06423448     0.08800
H239        H  0.49985714  0.40810203  0.33657115     0.06300
H240        H  0.53147049  0.35118323  0.26985919     0.06200
C241        C  0.39215117  0.47154965  0.33407880     0.03200
C242        C  0.40699390  0.46957310  0.03631991    -0.12900
C243        C  0.43594901  0.46708597  0.03555406     0.00700
C244        C  0.44984412  0.46577324  0.33244845    -0.11400
C245        C  0.43553392  0.46819744  0.29680008     0.03200
C246        C  0.40661635  0.47082483  0.29763228    -0.10900
H247        H  0.39705586  0.47154129  0.06470542     0.08800
H248        H  0.47356088  0.46587297  0.33185680     0.06300
H249        H  0.39684655  0.47444319  0.27001135     0.06200
C250        C  0.71555902  0.52578906  0.33351479     0.03200
C251        C  0.70114478  0.52785553  0.29756682    -0.12900
C252        C  0.67347416  0.53241958  0.29760657     0.00700
C253        C  0.65999853  0.53497694  0.33379582    -0.11400
C254        C  0.67339708  0.53190452  0.03651598     0.03200
C255        C  0.70127481  0.52762368  0.03631179    -0.10900
H256        H  0.71078250  0.52499112  0.26945776     0.08800
H257        H  0.63712541  0.53627357  0.33390734     0.06300
H258        H  0.71055275  0.52389741  0.06424342     0.06200
C259        C  0.58755187  0.66373673  0.33363000     0.03200
C260        C  0.59044154  0.64932963  0.03576494    -0.12900
C261        C  0.59719378  0.62320402  0.03490572     0.00700
C262        C  0.60162577  0.61155914  0.33169455    -0.11400
C263        C  0.59714398  0.62444235  0.29602875     0.03200
C264        C  0.59034930  0.65061253  0.29708789    -0.10900
H265        H  0.58701589  0.65804394  0.06421151     0.08800
H266        H  0.60512044  0.59010856  0.33102865     0.06300
H267        H  0.58601134  0.65979836  0.26945907     0.06200
C268        C  0.85339832  0.53981389  0.05278184    -0.17700
C269        C  0.82846074  0.54807052  0.05207661    -0.19900
C270        C  0.79839523  0.52933630  0.02655717     0.20800
C271        C  0.79358330  0.50220537  0.33465597    -0.02800
C272        C  0.81869217  0.49382782  0.33544405    -0.05900
C273        C  0.84870685  0.51267761  0.02800718     0.21000
C274        C  0.81368821  0.46651802  0.31034425     0.19200
C275        C  0.78364183  0.44773970  0.28487318    -0.17400
C276        C  0.75879582  0.45604057  0.28408993    -0.19600
C277        C  0.76353959  0.48321155  0.30879229     0.20700
C278        C  0.73859420  0.49148953  0.30827035    -0.32600
C279        C  0.74303100  0.51836968  0.33341188     0.01400
C280        C  0.77301477  0.53716094  0.02589313    -0.23900
C281        C  0.87362805  0.50428266  0.02838542    -0.28500
C282        C  0.86904418  0.47743649  0.00298878     0.07100
C283        C  0.83889520  0.45857401  0.31093851    -0.27200
H284        H  0.87637943  0.55467083  0.07275475     0.11800
H285        H  0.83265345  0.56906258  0.07153793     0.12900
H286        H  0.77940509  0.42668788  0.26548153     0.12000
H287        H  0.73581045  0.44116033  0.26412086     0.11200
H288        H  0.71519650  0.47639955  0.28886224     0.16600
H289        H  0.77664353  0.55798568  0.04523336     0.12500
H290        H  0.89702549  0.51917441  0.04780771     0.15400
H291        H  0.83503219  0.43757786  0.29170191     0.15200
C292        C  0.35325704  0.54408252  0.05197114    -0.17700
C293        C  0.32962060  0.55387308  0.05143663    -0.19900
C294        C  0.29960136  0.53619961  0.02592029     0.20800
C295        C  0.29328002  0.50837434  0.33381706    -0.02800
C296        C  0.31705405  0.49840147  0.33446796    -0.05900
C297        C  0.34719598  0.51645540  0.02705867     0.21000
C298        C  0.31089652  0.47069517  0.30912713     0.19200
C299        C  0.28087504  0.45307734  0.28354936    -0.17400
C300        C  0.25727219  0.46298332  0.28289927    -0.19600
C301        C  0.26328629  0.49060422  0.30784352     0.20700
C302        C  0.23971907  0.50060436  0.30753936    -0.32600
C303        C  0.24566634  0.52798719  0.99983414     0.01400
C304        C  0.27567509  0.54571475  0.02543375    -0.23900
C305        C  0.37098947  0.50683752  0.02719727    -0.28500
C306        C  0.36521824  0.47944927  0.33510674     0.07100
C307        C  0.33508993  0.46140689  0.30956614    -0.27200
H308        H  0.37633707  0.55816565  0.07188702     0.11800
H309        H  0.33480083  0.57524401  0.07097421     0.12900
H310        H  0.27573595  0.43175111  0.26396481     0.12000
H311        H  0.23428970  0.44902816  0.26284899     0.11200
H312        H  0.21630880  0.48658789  0.28806703     0.16600
H313        H  0.28040436  0.56700052  0.04484494     0.12500
H314        H  0.39461598  0.52134566  0.04634701     0.15400
H315        H  0.33064820  0.44032337  0.29002598     0.15200
C316        C  0.85452144  0.25011589  0.95089323    -0.17700
C317        C  0.82038743  0.21688242  0.94998079    -0.19900
C318        C  0.81281162  0.18816951  0.97422433     0.20800
C319        C  0.83961998  0.19296934  0.33326892    -0.02800
C320        C  0.87406946  0.22654355  0.33423845    -0.05900
C321        C  0.88143448  0.25513609  0.30947403     0.21000
C322        C  0.90105436  0.23154277  0.35997522     0.19200
C323        C  0.89317282  0.20288774  0.38466077    -0.17400
C324        C  0.85893240  0.16946210  0.38362610    -0.19600
C325        C  0.83203270  0.16421569  0.35796338     0.20700
C326        C  0.79765686  0.13083126  0.35657622    -0.32600
C327        C  0.77094822  0.12603003  0.33084206     0.01400
C328        C  0.77872957  0.15485537  0.97330207    -0.23900
C329        C  0.91563948  0.28826661  0.31026262    -0.28500
C330        C  0.94285939  0.29338915  0.00202613     0.07100
C331        C  0.93536428  0.26510083  0.36044833    -0.27200
H332        H  0.85987048  0.27194031  0.93181444     0.11800
H333        H  0.79993207  0.21359384  0.93022737     0.12900
H334        H  0.91352054  0.20629515  0.40468143     0.12000
H335        H  0.85349595  0.14770935  0.40287423     0.11200
H336        H  0.79165691  0.10857741  0.37535165     0.16600
H337        H  0.75790776  0.15162636  0.95421584     0.12500
H338        H  0.92092498  0.31040263  0.29177271     0.15400
H339        H  0.95624388  0.26919614  0.04689108     0.15200
C340        C  0.52980761  0.21711385  0.27292420    -0.18300
C341        C  0.52014715  0.24083092  0.27426901    -0.19900
C342        C  0.53681601  0.26954123  0.30151474     0.20800
C343        C  0.56401369  0.27495049  0.32714875    -0.02800
C344        C  0.57376379  0.25101110  0.99246735    -0.05900
C345        C  0.55622907  0.22174245  0.29883279     0.21000
C346        C  0.60029188  0.25568273  0.01873229     0.19200
C347        C  0.61763957  0.28505190  0.04523303    -0.17400
C348        C  0.60809603  0.30900611  0.04642514    -0.19600
C349        C  0.58097917  0.30392355  0.02123169     0.20700
C350        C  0.57010080  0.32684827  0.02326457    -0.32600
C351        C  0.54245171  0.32101656  0.33156333     0.01400
C352        C  0.52626249  0.29253828  0.30392155    -0.23900
C353        C  0.56465415  0.19701701  0.29888708    -0.28500
C354        C  0.59025418  0.20078013  0.32564359     0.07100
C355        C  0.60833289  0.23043230  0.01856583    -0.27200
H356        H  0.51622739  0.19481699  0.25197439     0.11800
H357        H  0.49933763  0.23646990  0.25432534     0.12900
H358        H  0.63821724  0.28920213  0.06540410     0.12000
H359        H  0.62156347  0.33121116  0.06748471     0.11200
H360        H  0.58314364  0.34918873  0.04416859     0.16600
H361        H  0.50485205  0.28784309  0.28473446     0.12500
H362        H  0.55014830  0.17390928  0.27902158     0.15400
H363        H  0.62825542  0.23351439  0.03904209     0.15200
C364        C  0.29213524  0.79932615  0.27354763    -0.17700
C365        C  0.25897803  0.76512657  0.27472533    -0.19900
C366        C  0.23265536  0.75741563  0.30275808     0.20800
C367        C  0.23960758  0.78425894  0.99652693    -0.02800
C368        C  0.27317763  0.81878029  0.99544896    -0.05900
C369        C  0.29947766  0.82621390  0.30050798     0.21000
C370        C  0.28064928  0.84562602  0.02301228     0.19200
C371        C  0.25421123  0.83772931  0.05111959    -0.17400
C372        C  0.22074026  0.80346397  0.05203863    -0.19600
C373        C  0.21321390  0.77650919  0.02494974     0.20700
C374        C  0.17991272  0.74192055  0.02577226    -0.32600
C375        C  0.17292424  0.71515773  0.99857250     0.01400
C376        C  0.19959870  0.72313186  0.30417934    -0.23900
C377        C  0.33307529  0.86006288  0.30017762    -0.28500
C378        C  0.34113541  0.88683268  0.32786360     0.07100
C379        C  0.31466369  0.87956300  0.02237471    -0.27200
H380        H  0.31217462  0.80467038  0.25172833     0.11800
H381        H  0.25393592  0.74466442  0.25374509     0.12900
H382        H  0.25949522  0.85799109  0.07253074     0.12000
H383        H  0.20081745  0.79798238  0.07407876     0.11200
H384        H  0.15940911  0.73585859  0.04731269     0.16600
H385        H  0.19486602  0.70232326  0.28392294     0.12500
H386        H  0.35359642  0.86498970  0.27930825     0.15400
H387        H  0.32078487  0.90012840  0.04382843     0.15200
C388        C  0.51105180  0.73246652  0.05498048    -0.17700
C389        C  0.51976519  0.70785370  0.05541378    -0.19900
C390        C  0.54572436  0.71204280  0.02899015     0.20800
C391        C  0.56349077  0.74160659  0.33553531    -0.02800
C392        C  0.55472092  0.76645809  0.33510669    -0.05900
C393        C  0.52816465  0.76171772  0.02811281     0.21000
C394        C  0.57233591  0.79589768  0.30818308     0.19200
C395        C  0.59883902  0.80053632  0.28237636    -0.17400
C396        C  0.60745035  0.77588557  0.28272100    -0.19600
C397        C  0.58973774  0.74618627  0.30893535     0.20700
C398        C  0.59760156  0.72084524  0.30871890    -0.32600
C399        C  0.57964813  0.69092992  0.33480098     0.01400
C400        C  0.55395202  0.68696477  0.02848258    -0.23900
C401        C  0.51918688  0.78622254  0.02696725    -0.28500
C402        C  0.53643996  0.81553605  0.99992824     0.07100
C403        C  0.56320255  0.82021448  0.30748665    -0.27200
H404        H  0.49078187  0.72850505  0.07550509     0.11800
H405        H  0.50598701  0.68536299  0.07625634     0.12900
H406        H  0.61275476  0.82312583  0.26166502     0.12000
H407        H  0.62778508  0.77990333  0.26226447     0.11200
H408        H  0.61779438  0.72443174  0.28831729     0.16600
H409        H  0.53972163  0.66384034  0.04847643     0.12500
H410        H  0.49857161  0.78232799  0.04689205     0.15400
H411        H  0.57738539  0.84319408  0.28729761     0.15200
C412        C  0.52801338  0.84231825  0.33303108     0.03200
C413        C  0.52716291  0.85788590  0.63059335    -0.12900
C414        C  0.52206306  0.88527255  0.63084361     0.00700
C415        C  0.51741790  0.89705098  0.66713625    -0.11400
C416        C  0.51920015  0.88243246  0.36963688     0.03200
C417        C  0.52404920  0.85496443  0.36912711    -0.10900
H418        H  0.53138317  0.84941722  0.60244781     0.08800
H419        H  0.51594069  0.91984114  0.66764772     0.06300
H420        H  0.52718586  0.84520823  0.39707742     0.06200
C421        C  0.37843123  0.92079288  0.66272439     0.03200
C422        C  0.39781247  0.93728953  0.62738326    -0.12900
C423        C  0.43522086  0.96427994  0.62817227     0.00700
C424        C  0.45325187  0.97664933  0.66476206    -0.11400
C425        C  0.43413075  0.96047407  0.36697615     0.03200
C426        C  0.39686806  0.93273790  0.36587116    -0.10900
H427        H  0.38435186  0.92712498  0.59889622     0.08800
H428        H  0.48251955  0.99589022  0.66539975     0.06300
H429        H  0.38282721  0.91876531  0.39318798     0.06200
C430        C  0.52822932  0.90578345  0.59411091     0.42600
N431        N  0.52088570  0.92962367  0.54375174     0.01500
C432        C  0.65493256  0.06553491  0.42189858    -0.06400
H433        H  0.66867133  0.09628452  0.57523261     0.06900
C434        C  0.55453611  0.08383268  0.56873027    -0.06800
Co435      Co  0.58968533  0.97761118  0.49774804     0.74200
N436        N  0.63411874  0.04916408  0.53839162    -0.26000
Co437      Co  0.61450971  0.06541566  0.49480642     0.74100
C438        C  0.58958755  0.10681466  0.58806145     0.42700
N439        N  0.49039948  0.99589988  0.54108634     0.01100
N440        N  0.59475286  0.08195732  0.53787927     0.01200
N441        N  0.63770657  0.00770898  0.42234648    -0.46800
H442        H  0.58820534  0.93368539  0.57928843     0.06900
N443        N  0.62440791  0.01566819  0.54011108     0.01500
N444        N  0.59342388  0.08025522  0.45077126     0.01200
C445        C  0.58745754  0.10546417  0.40101008     0.42800
N446        N  0.48094766  0.96245122  0.54157548    -0.25400
C447        C  0.55992729  0.92502054  0.42657744    -0.06300
N448        N  0.50361670  0.90781362  0.57473392    -0.46500
N449        N  0.61142440  0.10270771  0.42055961    -0.46700
C450        C  0.52515110  0.90151117  0.40700322     0.42600
N451        N  0.62332791  0.01382331  0.45254922     0.01400
N452        N  0.47952485  0.96028083  0.45533803    -0.25400
N453        N  0.55528737  0.94221611  0.54232288    -0.25900
N454        N  0.48934341  0.99385262  0.45357332     0.01100
H455        H  0.44423781  0.91298017  0.41892760     0.07000
H456        H  0.52709122  0.07734946  0.41424689     0.07000
N457        N  0.63276655  0.04725463  0.45244953    -0.26000
N458        N  0.56032932  0.06931778  0.53807026    -0.25600
N459        N  0.51931197  0.92729762  0.45594649     0.01500
C460        C  0.65890940  0.04209154  0.59012914     0.42800
C461        C  0.45882186  0.94454217  0.57236693    -0.06800
N462        N  0.55903935  0.06774464  0.45162067    -0.25600
H463        H  0.52892124  0.07839634  0.57687020     0.07000
N464        N  0.63838812  0.01005680  0.57114001    -0.46800
H465        H  0.44661478  0.91661021  0.58035457     0.07000
C466        C  0.45381827  0.96715094  0.40415151     0.42700
C467        C  0.56235369  0.92837143  0.57277656    -0.06300
Co468      Co  0.49931313  0.94403857  0.49918817     0.73800
N469        N  0.47608047  0.00234617  0.57105563    -0.46500
C470        C  0.65801365  0.03940040  0.40218742     0.42900
N471        N  0.50108960  0.90434270  0.42625817    -0.46500
Co472      Co  0.52425447  0.03204376  0.49605032     0.73900
C473        C  0.55271612  0.08232253  0.42122916    -0.06800
C474        C  0.65646128  0.06813242  0.56861811    -0.06400
N475        N  0.55376845  0.94005447  0.45623827    -0.25900
N476        N  0.61335134  0.10441706  0.56770583    -0.46700
H477        H  0.66710314  0.09353806  0.41431043     0.07000
C478        C  0.45667594  0.94120454  0.42540246    -0.06800
Cl479      Cl  0.55689621  0.00474956  0.49689232    -0.49800
C480        C  0.45583245  0.97096399  0.59171900     0.42700
H481        H  0.58568045  0.93042145  0.41925337     0.06900
N482        N  0.47490151  0.99931453  0.42288326    -0.46500
C483        C  0.59611983  0.17230259  0.66031404     0.03200
C484        C  0.59775428  0.15747837  0.62466566    -0.12900
C485        C  0.59702584  0.12657486  0.62508262     0.00700
C486        C  0.59621754  0.11094541  0.66128995    -0.11400
C487        C  0.59467307  0.12549038  0.36381718     0.03200
C488        C  0.59474152  0.15620103  0.36331486    -0.10900
H489        H  0.59753953  0.16876649  0.59634424     0.08800
H490        H  0.59397448  0.08598041  0.66146830     0.06300
H491        H  0.59161014  0.16620517  0.39097496     0.06200
C492        C  0.73421614  0.09155450  0.66365449     0.03200
C493        C  0.71567759  0.07783683  0.62754738    -0.12900
C494        C  0.67884797  0.04915130  0.62701601     0.00700
C495        C  0.66032494  0.03298159  0.66276409    -0.11400
C496        C  0.67860838  0.04672499  0.36569556     0.03200
C497        C  0.71557179  0.07556658  0.36595741    -0.10900
H498        H  0.72942107  0.09080504  0.59975646     0.08800
H499        H  0.63119414  0.01271537  0.66249831     0.06300
H500        H  0.72895676  0.08768185  0.39408454     0.06200
C501        C  0.08450131  0.60340434  0.59306006     0.42600
N502        N  0.09169043  0.57980308  0.54291804     0.01500
C503        C  0.96079386  0.43817675  0.42607557    -0.06400
H504        H  0.94984201  0.41197474  0.58551193     0.06900
C505        C  0.06773216  0.43126162  0.57871390    -0.06800
Co506      Co  0.02241300  0.52717665  0.50027876     0.74200
N507        N  0.98172386  0.45738858  0.54514402    -0.26000
Co508      Co  0.00284824  0.44162913  0.50228763     0.74100
C509        C  0.03264469  0.40599600  0.59761000     0.42700
N510        N  0.12802130  0.51848731  0.54487985     0.01100
N511        N  0.02541405  0.42867972  0.54623732     0.01200
N512        N  0.97344434  0.49407561  0.42839320    -0.46800
H513        H  0.02302563  0.57031898  0.58301071     0.06900
N514        N  0.98870161  0.48980272  0.54378336     0.01500
N515        N  0.02530197  0.42741806  0.46011720     0.01200
C516        C  0.03219746  0.40327894  0.41028595     0.42800
N517        N  0.13509101  0.55094920  0.54500924    -0.25400
C518        C  0.04997566  0.57652881  0.42413839    -0.06300
N519        N  0.10940032  0.60327413  0.57203145    -0.46500
N520        N  0.00744965  0.40370467  0.43123845    -0.46700
C521        C  0.08529646  0.60199396  0.40569628     0.42600
N522        N  0.98918346  0.48906565  0.45778456     0.01400
N523        N  0.13513551  0.54994422  0.45766004    -0.25400
N524        N  0.05664919  0.56469078  0.54343926    -0.25900
N525        N  0.12810578  0.51750461  0.45890845     0.01100
H526        H  0.16657436  0.59522241  0.41702943     0.07000
H527        H  0.09374340  0.43645252  0.42006000     0.07000
N528        N  0.98201853  0.45655012  0.45760415    -0.26000
N529        N  0.06044877  0.44370625  0.54680545    -0.25600
N530        N  0.09194124  0.57886231  0.45692673     0.01500
C531        C  0.95383729  0.46412427  0.59413275     0.42800
C532        C  0.15637870  0.56952619  0.57636956    -0.06800
N533        N  0.06033296  0.44249416  0.45950795    -0.25600
H534        H  0.09403441  0.43851193  0.58712897     0.07000
N535        N  0.97247587  0.49493327  0.57249840    -0.46800
H536        H  0.16681809  0.59697130  0.58444047     0.07000
C537        C  0.16232555  0.54298904  0.40817535     0.42700
C538        C  0.04937227  0.57766357  0.57465095    -0.06300
Co539      Co  0.11421403  0.56574315  0.50064463     0.73800
N540        N  0.14385990  0.51366124  0.57429713    -0.46500
C541        C  0.95502037  0.46320151  0.40727106     0.42900
N542        N  0.10994328  0.60200361  0.42745041    -0.46500
Co543      Co  0.09469293  0.48022512  0.50250384     0.73900
C544        C  0.06744096  0.42922033  0.42844812    -0.06800
C545        C  0.96018069  0.43924402  0.57655565    -0.06400
N546        N  0.05692504  0.56385078  0.45609241    -0.25900
N547        N  0.00773184  0.40572751  0.57597099    -0.46700
H548        H  0.95029898  0.41074819  0.41785871     0.07000
C549        C  0.15632940  0.56799032  0.42602372    -0.06800
Cl550      Cl  0.05852278  0.50367017  0.50144020    -0.49800
C551        C  0.16222111  0.54465156  0.59523701     0.42700
H552        H  0.02376396  0.56936051  0.41543557     0.06900
N553        N  0.14397407  0.51224860  0.42990141    -0.46500
C554        C  0.21988747  0.53735343  0.33376753     0.03200
C555        C  0.20691820  0.54165438  0.63150190    -0.12900
C556        C  0.18120108  0.54884063  0.63207245     0.00700
C557        C  0.16877056  0.55253078  0.33507443    -0.11400
C558        C  0.18062261  0.54691711  0.37077410     0.03200
C559        C  0.20624013  0.53956064  0.37005753    -0.10900
H560        H  0.21604271  0.53841037  0.60321684     0.08800
H561        H  0.14744538  0.55616685  0.33547963     0.06300
H562        H  0.21451844  0.53421725  0.39771544     0.06200
C563        C  0.97834221  0.32928290  0.33607308     0.03200
C564        C  0.99407559  0.34836386  0.63381080    -0.12900
C565        C  0.02382162  0.38488760  0.63423812     0.00700
C566        C  0.03937936  0.40222160  0.33724647    -0.11400
C567        C  0.02351583  0.38338970  0.37301948     0.03200
C568        C  0.99341288  0.34691778  0.37230600    -0.10900
H569        H  0.98173030  0.33542699  0.60559204     0.08800
H570        H  0.06093078  0.43109435  0.33776523     0.06300
H571        H  0.98002347  0.33318452  0.39996805     0.06200
C572        C  0.89610525  0.46955389  0.33564197     0.03200
C573        C  0.90964760  0.46719130  0.63260309    -0.12900
C574        C  0.93570289  0.46037029  0.63171776     0.00700
C575        C  0.94804077  0.45533032  0.33404505    -0.11400
C576        C  0.93587173  0.45917390  0.37048912     0.03200
C577        C  0.90992226  0.46614235  0.37119458    -0.10900
H578        H  0.90080470  0.47186894  0.60494043     0.08800
H579        H  0.96948529  0.45186670  0.33348849     0.06300
H580        H  0.90094609  0.46947440  0.39952555     0.06200
C581        C  0.13834107  0.67837305  0.33271652     0.03200
C582        C  0.12226440  0.66013240  0.63027629    -0.12900
C583        C  0.09309134  0.62341356  0.63019944     0.00700
C584        C  0.07824642  0.60490631  0.33289178    -0.11400
C585        C  0.09434083  0.62279792  0.36886681     0.03200
C586        C  0.12416568  0.65946978  0.36869374    -0.10900
H587        H  0.13372196  0.67396617  0.60211584     0.08800
H588        H  0.05701728  0.57592388  0.66617955     0.06300
H589        H  0.13768955  0.67256732  0.39644276     0.06200
C590        C  0.65405795  0.52645190  0.40701494     0.42600
N591        N  0.63026362  0.53452789  0.45645571     0.01500
C592        C  0.49127667  0.40375393  0.57732954    -0.06400
H593        H  0.46319033  0.39006444  0.41783840     0.06900
C594        C  0.47979170  0.50800388  0.42540185    -0.06800
Co595      Co  0.57904506  0.46542569  0.50093489     0.74200
N596        N  0.50870154  0.42320410  0.45754381    -0.26000
Co597      Co  0.49294367  0.44427955  0.50056193     0.74100
C598        C  0.45591057  0.47330578  0.40561575     0.42700
N599        N  0.56776212  0.56955372  0.45588674     0.01100
N600        N  0.47912981  0.46602858  0.45619831     0.01200
N601        N  0.54745301  0.41739566  0.57402333    -0.46800
H602        H  0.62315881  0.46566797  0.42061034     0.06900
N603        N  0.54140034  0.43100315  0.45849911     0.01500
N604        N  0.47885048  0.46674387  0.54342183     0.01200
C605        C  0.45456592  0.47421564  0.59265597     0.42800
N606        N  0.60044933  0.57724666  0.45539329    -0.25400
C607        C  0.62987854  0.49275264  0.57373606    -0.06300
N608        N  0.65295047  0.55166002  0.42618952    -0.46500
N609        N  0.45603119  0.44931868  0.57344027    -0.46700
C610        C  0.65406895  0.52715839  0.59385467     0.42600
N611        N  0.54163037  0.43229155  0.54437474     0.01400
N612        N  0.60042783  0.57812562  0.54295108    -0.25400
N613        N  0.61606423  0.49961593  0.45744228    -0.25900
N614        N  0.56778069  0.57053439  0.54208055     0.01100
H615        H  0.64612778  0.61120458  0.58237527     0.07000
H616        H  0.48528390  0.53511185  0.57959992     0.07000
N617        N  0.50892069  0.42450432  0.54513549    -0.26000
N618        N  0.49318655  0.50092085  0.45623085    -0.25600
N619        N  0.63024021  0.53509381  0.54417902     0.01500
C620        C  0.51597207  0.39531140  0.40891122     0.42800
C621        C  0.61852389  0.59854365  0.42369470    -0.06800
N622        N  0.49287913  0.50161378  0.54256859    -0.25600
H623        H  0.48627074  0.53419362  0.41763311     0.07000
N624        N  0.54679934  0.41481798  0.43009844    -0.46800
H625        H  0.64598389  0.60940682  0.41529714     0.07000
C626        C  0.59363826  0.60640156  0.59164502     0.42700
C627        C  0.62970712  0.49202051  0.42742320    -0.06300
Co628      Co  0.61630157  0.55710573  0.49978940     0.73800
N629        N  0.56239309  0.58506692  0.42643727    -0.46500
C630        C  0.51703641  0.39906692  0.59601675     0.42900
N631        N  0.65295088  0.55235279  0.57434666    -0.46500
Co632      Co  0.53010825  0.53605565  0.49922461     0.73900
C633        C  0.47892182  0.50887136  0.57258020    -0.06800
C634        C  0.49063248  0.40110211  0.42650312    -0.06400
N635        N  0.61617409  0.50022437  0.54362643    -0.25900
N636        N  0.45670228  0.44836646  0.42599316    -0.46700
H637        H  0.46392860  0.39299776  0.58610622     0.07000
C638        C  0.61867211  0.60026848  0.57389173    -0.06800
Cl639      Cl  0.55461105  0.50074811  0.50013202    -0.49800
C640        C  0.59317441  0.60379556  0.40499062     0.42700
H641        H  0.62341805  0.46644801  0.58081628     0.06900
N642        N  0.56263664  0.58691637  0.57060591    -0.46500
C643        C  0.53036835  0.34472298  0.66687275     0.03200
C644        C  0.52511765  0.35565462  0.37003712    -0.12900
C645        C  0.51346656  0.37793633  0.37126596     0.00700
C646        C  0.50666909  0.38914428  0.66908162    -0.11400
C647        C  0.51372118  0.37981974  0.63253556     0.03200
C648        C  0.52513768  0.35744877  0.63161616    -0.10900
H649        H  0.53058100  0.34735363  0.39759219     0.08800
H650        H  0.49991126  0.40818470  0.66990750     0.06300
H651        H  0.53147250  0.35119913  0.60324202     0.06200
C652        C  0.39218945  0.47158832  0.66741461     0.03200
C653        C  0.40691852  0.46948515  0.36964970    -0.12900
C654        C  0.43589047  0.46702218  0.36890487     0.00700
C655        C  0.44991062  0.46585818  0.66575220    -0.11400
C656        C  0.43555511  0.46822800  0.63010979     0.03200
C657        C  0.40662006  0.47082855  0.63095852    -0.10900
H658        H  0.39697752  0.47146336  0.39802755     0.08800
H659        H  0.47363576  0.46597272  0.66514610     0.06300
H660        H  0.39681207  0.47440457  0.60334157     0.06200
C661        C  0.71559302  0.52582436  0.66685089     0.03200
C662        C  0.70118457  0.52790366  0.63090146    -0.12900
C663        C  0.67349710  0.53244253  0.63093811     0.00700
C664        C  0.66001824  0.53499927  0.66712472    -0.11400
C665        C  0.67341721  0.53191755  0.36982976     0.03200
C666        C  0.70131208  0.52766251  0.36961298    -0.10900
H667        H  0.71083805  0.52506997  0.60278754     0.08800
H668        H  0.63714150  0.53629008  0.66723292     0.06300
H669        H  0.71061765  0.52396417  0.39754058     0.06200
C670        C  0.58751542  0.66371639  0.66689741     0.03200
C671        C  0.59047582  0.64932035  0.36907279    -0.12900
C672        C  0.59722185  0.62319068  0.36821736     0.00700
C673        C  0.60166660  0.61159492  0.66501466    -0.11400
C674        C  0.59714377  0.62443171  0.62933651     0.03200
C675        C  0.59030836  0.65057172  0.63036973    -0.10900
H676        H  0.58705984  0.65804640  0.39751679     0.08800
H677        H  0.60518526  0.59016058  0.66436981     0.06300
H678        H  0.58593483  0.65971644  0.60273202     0.06200
C679        C  0.85352724  0.54000861  0.38594003    -0.17700
C680        C  0.82858921  0.54826388  0.38521918    -0.19900
C681        C  0.79847462  0.52945661  0.35977311     0.20800
C682        C  0.79362914  0.50223879  0.66798839    -0.02800
C683        C  0.81872521  0.49384422  0.66878325    -0.05900
C684        C  0.84878682  0.51280104  0.36125442     0.21000
C685        C  0.81385641  0.46671446  0.64347521     0.19200
C686        C  0.78396477  0.44813989  0.61777839    -0.17400
C687        C  0.75913123  0.45645609  0.61699001    -0.19600
C688        C  0.76373302  0.48343941  0.64191203     0.20700
C689        C  0.73878356  0.49171184  0.64140324    -0.32600
C690        C  0.74307860  0.51841311  0.66674744     0.01400
C691        C  0.77308849  0.53727268  0.35910416    -0.23900
C692        C  0.87370395  0.50440175  0.36165442    -0.28500
C693        C  0.86907218  0.47748882  0.33633952     0.07100
C694        C  0.83904102  0.45874256  0.64409095    -0.27200
H695        H  0.87654595  0.55492100  0.40585682     0.11800
H696        H  0.83281845  0.56931032  0.40461345     0.12900
H697        H  0.77983691  0.42723221  0.59821834     0.12000
H698        H  0.73626369  0.44173091  0.59684889     0.11200
H699        H  0.71548658  0.47674355  0.62184396     0.16600
H700        H  0.77674688  0.55814428  0.37838568     0.12500
H701        H  0.89713481  0.51933938  0.38102605     0.15400
H702        H  0.83526562  0.43787166  0.62470257     0.15200
C703        C  0.35316129  0.54395613  0.38526006    -0.17700
C704        C  0.32953064  0.55375257  0.38471959    -0.19900
C705        C  0.29953197  0.53610442  0.35917524     0.20800
C706        C  0.29331518  0.50840274  0.66714404    -0.02800
C707        C  0.31708847  0.49842951  0.66780529    -0.05900
C708        C  0.34711356  0.51634654  0.36032768     0.21000
C709        C  0.31087062  0.47064431  0.64255751     0.19200
C710        C  0.28079008  0.45294862  0.61706353    -0.17400
C711        C  0.25718866  0.46285585  0.61640207    -0.19600
C712        C  0.26326235  0.49055436  0.64125277     0.20700
C713        C  0.23969518  0.50055371  0.64093959    -0.32600
C714        C  0.24561113  0.52791374  0.33307741     0.01400
C715        C  0.27560554  0.54561800  0.35869607    -0.23900
C716        C  0.37089502  0.50671496  0.36048736    -0.28500
C717        C  0.36525249  0.47947950  0.66845425     0.07100
C718        C  0.33506574  0.46135856  0.64299970    -0.27200
H719        H  0.37622356  0.55801725  0.40520141     0.11800
H720        H  0.33469700  0.57510572  0.40427813     0.12900
H721        H  0.27560432  0.43156120  0.59755188     0.12000
H722        H  0.23415968  0.44883989  0.59641711     0.11200
H723        H  0.21624145  0.48648257  0.62153017     0.16600
H724        H  0.28032220  0.56688375  0.37813316     0.12500
H725        H  0.39450406  0.52120620  0.37966325     0.15400
H726        H  0.33058297  0.44021927  0.62352571     0.15200
C727        C  0.85443573  0.25022867  0.28436863    -0.17700
C728        C  0.82029337  0.21700262  0.28347219    -0.19900
C729        C  0.81274556  0.18825737  0.30763568     0.20800
C730        C  0.83968151  0.19292660  0.66662974    -0.02800
C731        C  0.87413171  0.22650162  0.66759138    -0.05900
C732        C  0.88150514  0.25507687  0.64278980     0.21000
C733        C  0.90110660  0.23152103  0.69336081     0.19200
C734        C  0.89321399  0.20288253  0.71808503    -0.17400
C735        C  0.85897157  0.16945608  0.71706008    -0.19600
C736        C  0.83208008  0.16419104  0.69136778     0.20700
C737        C  0.79769742  0.13080868  0.68999590    -0.32600
C738        C  0.77099909  0.12599369  0.66423104     0.01400
C739        C  0.77866195  0.15494352  0.30671514    -0.23900
C740        C  0.91570510  0.28821164  0.64357897    -0.28500
C741        C  0.94284581  0.29341375  0.33530774     0.07100
C742        C  0.93541608  0.26508294  0.69382864    -0.27200
H743        H  0.85976410  0.27207768  0.26534982     0.11800
H744        H  0.79981141  0.21374355  0.26378986     0.12900
H745        H  0.91355352  0.20630439  0.73813106     0.12000
H746        H  0.85352638  0.14771818  0.73634106     0.11200
H747        H  0.79168401  0.10856916  0.70880726     0.16600
H748        H  0.75781461  0.15173214  0.28769119     0.12500
H749        H  0.92098895  0.31033441  0.62506548     0.15400
H750        H  0.95628276  0.26916509  0.38003525     0.15200
C751        C  0.52977419  0.21712464  0.60626824    -0.18300
C752        C  0.52011166  0.24084050  0.60762482    -0.19900
C753        C  0.53675500  0.26952558  0.63490292     0.20800
C754        C  0.56391936  0.27490203  0.66056899    -0.02800
C755        C  0.57374409  0.25095312  0.32582467    -0.05900
C756        C  0.55617346  0.22172914  0.63219605     0.21000
C757        C  0.60024709  0.25561051  0.35212077     0.19200
C758        C  0.61755664  0.28495450  0.37865421    -0.17400
C759        C  0.60799934  0.30889725  0.37984708    -0.19600
C760        C  0.58090493  0.30382657  0.35462346     0.20700
C761        C  0.57001358  0.32674002  0.35665537    -0.32600
C762        C  0.54238619  0.32099445  0.66496952     0.01400
C763        C  0.52621479  0.29253487  0.63730334    -0.23900
C764        C  0.56461629  0.19701577  0.63222064    -0.28500
C765        C  0.59019780  0.20075913  0.65899203     0.07100
C766        C  0.60830111  0.23037063  0.35195205    -0.27200
H767        H  0.51621792  0.19485160  0.58528774     0.11800
H768        H  0.49932521  0.23650217  0.58765904     0.12900
H769        H  0.63811496  0.28909369  0.39884949     0.12000
H770        H  0.62143751  0.33108326  0.40093124     0.11200
H771        H  0.58303523  0.34906579  0.37757790     0.16600
H772        H  0.50483301  0.28786742  0.61808638     0.12500
H773        H  0.55014009  0.17393374  0.61231844     0.15400
H774        H  0.62820510  0.23344297  0.37245097     0.15200
C775        C  0.29211486  0.79935025  0.60681208    -0.17700
C776        C  0.25897267  0.76513901  0.60801753    -0.19900
C777        C  0.23266672  0.75741505  0.63608104     0.20800
C778        C  0.23960758  0.78429464  0.32990633    -0.02800
C779        C  0.27318403  0.81881163  0.32883012    -0.05900
C780        C  0.29945992  0.82623584  0.63377710     0.21000
C781        C  0.28068161  0.84564516  0.35642595     0.19200
C782        C  0.25426292  0.83774004  0.38456609    -0.17400
C783        C  0.22078654  0.80347817  0.38548566    -0.19600
C784        C  0.21323364  0.77653514  0.35836258     0.20700
C785        C  0.17992625  0.74194870  0.35918302    -0.32600
C786        C  0.17291228  0.71519880  0.33194584     0.01400
C787        C  0.19962510  0.72312039  0.63752806    -0.23900
C788        C  0.33304995  0.86009145  0.63342957    -0.28500
C789        C  0.34111869  0.88685715  0.66112641     0.07100
C790        C  0.31470242  0.87957725  0.35578727    -0.27200
H791        H  0.31214236  0.80470405  0.58497039     0.11800
H792        H  0.25392917  0.74467805  0.58703454     0.12900
H793        H  0.25956667  0.85799197  0.40600320     0.12000
H794        H  0.20088020  0.79799021  0.40755229     0.11200
H795        H  0.15943856  0.73587889  0.38075061     0.16600
H796        H  0.19489512  0.70231395  0.61727021     0.12500
H797        H  0.35356224  0.86502131  0.61254485     0.15400
H798        H  0.32084168  0.90013322  0.37726409     0.15200
C799        C  0.51104206  0.73242487  0.38819986    -0.17700
C800        C  0.51973831  0.70779891  0.38863108    -0.19900
C801        C  0.54573192  0.71200842  0.36224899     0.20800
C802        C  0.56338180  0.74153081  0.66879465    -0.02800
C803        C  0.55461503  0.76638435  0.66839597    -0.05900
C804        C  0.52820613  0.76170907  0.36137516     0.21000
C805        C  0.57218258  0.79579730  0.64143887     0.19200
C806        C  0.59862547  0.80040145  0.61555726    -0.17400
C807        C  0.60723127  0.77574708  0.61587002    -0.19600
C808        C  0.58957589  0.74608129  0.64212968     0.20700
C809        C  0.59745446  0.72075218  0.64190522    -0.32600
C810        C  0.57956838  0.69087727  0.66804362     0.01400
C811        C  0.55394964  0.68692321  0.36174457    -0.23900
C812        C  0.51924933  0.78623008  0.36023560    -0.28500
C813        C  0.53654705  0.81557190  0.33323464     0.07100
C814        C  0.56306454  0.82012457  0.64078295    -0.27200
H815        H  0.49074622  0.72844873  0.40869306     0.11800
H816        H  0.50592167  0.68528352  0.40944067     0.12900
H817        H  0.61250025  0.82296845  0.59481521     0.12000
H818        H  0.62752227  0.77974017  0.59536018     0.11200
H819        H  0.61761610  0.72432465  0.62146322     0.16600
H820        H  0.53969014  0.66377898  0.38171045     0.12500
H821        H  0.49861434  0.78232641  0.38013400     0.15400
H822        H  0.57722325  0.84308844  0.62057244     0.15200
C823        C  0.52792869  0.84226386  0.66639528     0.03200
C824        C  0.52711791  0.85788663  0.96391393    -0.12900
C825        C  0.52200014  0.88526204  0.96416125     0.00700
C826        C  0.51736006  0.89704473  0.00045409    -0.11400
C827        C  0.51913947  0.88240033  0.70299349     0.03200
C828        C  0.52395761  0.85490946  0.70248975    -0.10900
H829        H  0.53134342  0.84941911  0.93577060     0.08800
H830        H  0.51587507  0.91983002  0.00096398     0.06300
H831        H  0.52707112  0.84514034  0.73044339     0.06200
C832        C  0.37841107  0.92076303  0.99607633     0.03200
C833        C  0.39777791  0.93726702  0.96073207    -0.12900
C834        C  0.43518094  0.96428047  0.96151104     0.00700
C835        C  0.45321921  0.97665749  0.99809834    -0.11400
C836        C  0.43411078  0.96048174  0.70026457     0.03200
C837        C  0.39684597  0.93275591  0.69914691    -0.10900
H838        H  0.38431137  0.92708672  0.93224971     0.08800
H839        H  0.48248536  0.99591307  0.99872848     0.06300
H840        H  0.38279464  0.91879054  0.72646213     0.06200
C841        C  0.52816007  0.90577055  0.92742813     0.42600
N842        N  0.52081812  0.92961972  0.87707642     0.01500
C843        C  0.65490918  0.06555051  0.75525897    -0.06400
H844        H  0.66861015  0.09626936  0.90858073     0.06900
C845        C  0.55447111  0.08382208  0.90206427    -0.06800
Co846      Co  0.58962312  0.97760766  0.83107756     0.74200
N847        N  0.63405202  0.04915283  0.87173613    -0.26000
Co848      Co  0.61445362  0.06541154  0.82814709     0.74100
C849        C  0.58951869  0.10678981  0.92140758     0.42700
N850        N  0.49033569  0.99590146  0.87440232     0.01100
N851        N  0.59468906  0.08194768  0.87121450     0.01200
N852        N  0.63767235  0.00772102  0.75569206    -0.46800
H853        H  0.58813518  0.93367286  0.91260539     0.06900
N854        N  0.62434133  0.01565695  0.87344759     0.01500
N855        N  0.59338083  0.08025580  0.78410551     0.01200
C856        C  0.58743081  0.10545265  0.73432032     0.42800
N857        N  0.48088448  0.96245300  0.87489084    -0.25400
C858        C  0.55986556  0.92500430  0.75992094    -0.06300
N859        N  0.50354797  0.90780555  0.90805600    -0.46500
N860        N  0.61139037  0.10269921  0.75389032    -0.46700
C861        C  0.52508630  0.90147843  0.74035830     0.42600
N862        N  0.62327741  0.01382627  0.78588509     0.01400
N863        N  0.47947272  0.96028480  0.78865237    -0.25400
N864        N  0.55521930  0.94221043  0.87564682    -0.25900
N865        N  0.48929327  0.99385735  0.78688456     0.01100
H866        H  0.44419836  0.91298663  0.75223440     0.07000
H867        H  0.52706306  0.07735196  0.74753761     0.07000
N868        N  0.63272256  0.04725984  0.78579377    -0.26000
N869        N  0.56026734  0.06931446  0.87139800    -0.25600
N870        N  0.51925123  0.92729229  0.78927437     0.01500
C871        C  0.65884684  0.04207343  0.92346379     0.42800
C872        C  0.45876674  0.94454588  0.90568785    -0.06800
N873        N  0.55899719  0.06774960  0.78494201    -0.25600
H874        H  0.52885655  0.07838708  0.91020252     0.07000
N875        N  0.63832490  0.01004156  0.90446961    -0.46800
H876        H  0.44656602  0.91661602  0.91367880     0.07000
C877        C  0.45378240  0.96715737  0.73745151     0.42700
C878        C  0.56228422  0.92836123  0.90609596    -0.06300
Co879      Co  0.49925139  0.94403822  0.83250869     0.73800
N880        N  0.47602552  0.00234980  0.90438063    -0.46500
C881        C  0.65799771  0.03942045  0.73554837     0.42900
N882        N  0.50102612  0.90432039  0.75959987    -0.46500
Co883      Co  0.52419891  0.03204720  0.82936836     0.73900
C884        C  0.55268481  0.08232389  0.75453587    -0.06800
C885        C  0.65639552  0.06811680  0.90196358    -0.06400
N886        N  0.55370855  0.94005195  0.78956693    -0.25900
N887        N  0.61328323  0.10439592  0.90104984    -0.46700
H888        H  0.66709132  0.09355847  0.74768359     0.07000
C889        C  0.45663289  0.94121001  0.75871014    -0.06800
Cl890      Cl  0.55683693  0.00474808  0.83021873    -0.49800
C891        C  0.45578418  0.97096865  0.92504824     0.42700
H892        H  0.58561773  0.93039933  0.75260548     0.06900
N893        N  0.47486145  0.99932096  0.75618487    -0.46500
C894        C  0.59614346  0.17234402  0.99363346     0.03200
C895        C  0.59773644  0.15748546  0.95799194    -0.12900
C896        C  0.59696520  0.12655846  0.95842299     0.00700
C897        C  0.59615172  0.11093502  0.99463646    -0.11400
C898        C  0.59466759  0.12549515  0.69713508     0.03200
C899        C  0.59469677  0.15618107  0.69663749    -0.10900
H900        H  0.59752207  0.16876804  0.92966590     0.08800
H901        H  0.59388106  0.08595539  0.99482537     0.06300
H902        H  0.59152997  0.16615762  0.72429819     0.06200
C903        C  0.73419069  0.09153623  0.99694813     0.03200
C904        C  0.71563664  0.07781175  0.96084885    -0.12900
C905        C  0.67880378  0.04913225  0.96033534     0.00700
C906        C  0.66029480  0.03297013  0.99609050    -0.11400
C907        C  0.67861197  0.04675015  0.69906895     0.03200
C908        C  0.71558391  0.07557293  0.69934704    -0.10900
H909        H  0.72936924  0.09076897  0.93305034     0.08800
H910        H  0.63116307  0.01270778  0.99583876     0.06300
H911        H  0.72895767  0.08769514  0.72747669     0.06200
C912        C  0.08448066  0.60335219  0.92637993     0.42600
N913        N  0.09167831  0.57975393  0.87624582     0.01500
C914        C  0.96080456  0.43811776  0.75940515    -0.06400
H915        H  0.94981665  0.41191465  0.91883710     0.06900
C916        C  0.06774739  0.43123980  0.91207876    -0.06800
Co917      Co  0.02240721  0.52711958  0.83360634     0.74200
N918        N  0.98171634  0.45733225  0.87847616    -0.26000
Co919      Co  0.00286325  0.44158482  0.83562571     0.74100
C920        C  0.03265351  0.40596365  0.93095957     0.42700
N921        N  0.12804471  0.51847641  0.87823845     0.01100
N922        N  0.02543244  0.42864768  0.87958174     0.01200
N923        N  0.97344418  0.49401218  0.76172158    -0.46800
H924        H  0.02300390  0.57025583  0.91633134     0.06900
N925        N  0.98868826  0.48974358  0.87710820     0.01500
N926        N  0.02533463  0.42738442  0.79346469     0.01200
C927        C  0.03224391  0.40325747  0.74363007     0.42800
N928        N  0.13510509  0.55093419  0.87835015    -0.25400
C929        C  0.04997540  0.57649044  0.75747911    -0.06300
N930        N  0.10938474  0.60322931  0.90535493    -0.46500
N931        N  0.00749077  0.40367651  0.76457933    -0.46700
C932        C  0.08530027  0.60196954  0.73904976     0.42600
N933        N  0.98918876  0.48900780  0.79111088     0.01400
N934        N  0.13514696  0.54991299  0.79100477    -0.25400
N935        N  0.05663523  0.56463376  0.87676640    -0.25900
N936        N  0.12813172  0.51747992  0.79226424     0.01100
H937        H  0.16656415  0.59518212  0.75035898     0.07000
H938        H  0.09378911  0.43643717  0.75341801     0.07000
N939        N  0.98203014  0.45649509  0.79093250    -0.26000
N940        N  0.06046921  0.44368221  0.88016335    -0.25600
N941        N  0.09193781  0.57881515  0.79026231     0.01500
C942        C  0.95379340  0.46405761  0.92743884     0.42800
C943        C  0.15640256  0.56953235  0.90969602    -0.06800
N944        N  0.06036693  0.44246448  0.79286428    -0.25600
H945        H  0.09404948  0.43849640  0.92050594     0.07000
N946        N  0.97244296  0.49486760  0.90580590    -0.46800
H947        H  0.16683820  0.59698049  0.91774807     0.07000
C948        C  0.16234109  0.54296123  0.74152270     0.42700
C949        C  0.04935258  0.57760413  0.90797452    -0.06300
Co950      Co  0.11421457  0.56570558  0.83398086     0.73800
N951        N  0.14390062  0.51367370  0.90765766    -0.46500
C952        C  0.95502155  0.46313686  0.74060224     0.42900
N953        N  0.10994397  0.60197155  0.76079969    -0.46500
Co954      Co  0.09471930  0.48020169  0.83586343     0.73900
C955        C  0.06748331  0.42919787  0.76180322    -0.06800
C956        C  0.96015726  0.43918413  0.90987891    -0.06400
N957        N  0.05692104  0.56379991  0.78942437    -0.25900
N958        N  0.00774471  0.40569224  0.90931019    -0.46700
H959        H  0.95031163  0.41068919  0.75119114     0.07000
C960        C  0.15633316  0.56795621  0.75936324    -0.06800
Cl961      Cl  0.05853177  0.50362874  0.83478141    -0.49800
C962        C  0.16226501  0.54467798  0.92857630     0.42700
H963        H  0.02376468  0.56932602  0.74877845     0.06900
N964        N  0.14400236  0.51222565  0.76325799    -0.46500
C965        C  0.21990702  0.53735447  0.66709441     0.03200
C966        C  0.20696991  0.54172048  0.96488810    -0.12900
C967        C  0.18124060  0.54889057  0.96542513     0.00700
C968        C  0.16875094  0.55247637  0.66841613    -0.11400
C969        C  0.18062654  0.54688616  0.70411327     0.03200
C970        C  0.20626715  0.53956088  0.70338927    -0.10900
H971        H  0.21610932  0.53847671  0.93661395     0.08800
H972        H  0.14741370  0.55609488  0.66882752     0.06300
H973        H  0.21457021  0.53424050  0.73104402     0.06200
C974        C  0.97839717  0.32926065  0.66941457     0.03200
C975        C  0.99405962  0.34834798  0.96717885    -0.12900
C976        C  0.02381891  0.38486639  0.96759703     0.00700
C977        C  0.03940855  0.40221498  0.67058283    -0.11400
C978        C  0.02356698  0.38337475  0.70635804     0.03200
C979        C  0.99347660  0.34689627  0.70564602    -0.10900
H980        H  0.98172529  0.33540125  0.93896047     0.08800
H981        H  0.06094817  0.43109095  0.67110186     0.06300
H982        H  0.98010071  0.33315850  0.73331108     0.06200
C983        C  0.89611535  0.46952651  0.66899761     0.03200
C984        C  0.90958400  0.46711741  0.96589478    -0.12900
C985        C  0.93565366  0.46031209  0.96502210     0.00700
C986        C  0.94804187  0.45528536  0.66737816    -0.11400
C987        C  0.93586396  0.45910637  0.70382686     0.03200
C988        C  0.90991063  0.46607047  0.70454472    -0.10900
H989        H  0.90071389  0.47175540  0.93822691     0.08800
H990        H  0.96948348  0.45181755  0.66681401     0.06300
H991        H  0.90092028  0.46936776  0.73288451     0.06200
C992        C  0.13837565  0.67835020  0.66608027     0.03200
C993        C  0.12225081  0.66009787  0.96355515    -0.12900
C994        C  0.09307142  0.62338151  0.96350027     0.00700
C995        C  0.07826486  0.60488961  0.66624576    -0.11400
C996        C  0.09435210  0.62277873  0.70222376     0.03200
C997        C  0.12418523  0.65944789  0.70205588    -0.10900
H998        H  0.13371772  0.67391548  0.93538894     0.08800
H999        H  0.05699203  0.57591269  0.99950670     0.06300
H1000       H  0.13770312  0.67254257  0.72980821     0.06200
C1001       C  0.65409352  0.52651009  0.74034999     0.42600
N1002       N  0.63031777  0.53461010  0.78979561     0.01500
C1003       C  0.49131759  0.40383808  0.91066179    -0.06400
H1004       H  0.46321572  0.39014537  0.75119631     0.06900
C1005       C  0.47988869  0.50812478  0.75871249    -0.06800
Co1006     Co  0.57908380  0.46551036  0.83426843     0.74200
N1007       N  0.50873975  0.42329720  0.79088259    -0.26000
Co1008     Co  0.49299493  0.44438314  0.83390033     0.74100
C1009       C  0.45601949  0.47342919  0.73891697     0.42700
N1010       N  0.56783447  0.56966252  0.78923239     0.01100
N1011       N  0.47919641  0.46614154  0.78953359     0.01200
N1012       N  0.54749040  0.41747274  0.90734168    -0.46800
H1013       H  0.62317194  0.46572651  0.75395270     0.06900
N1014       N  0.54143649  0.43109190  0.79183253     0.01500
N1015       N  0.47891005  0.46685254  0.87676003     0.01200
C1016       C  0.45463067  0.47432163  0.92600204     0.42800
N1017       N  0.60051852  0.57734767  0.78873717    -0.25400
C1018       C  0.62990598  0.49280911  0.90706487    -0.06300
N1019       N  0.65300354  0.55173110  0.75952440    -0.46500
N1020       N  0.45609456  0.44942663  0.90678062    -0.46700
C1021       C  0.65409768  0.52720350  0.92719927     0.42600
N1022       N  0.54166989  0.43237956  0.87770504     0.01400
N1023       N  0.60048804  0.57822782  0.87630363    -0.25400
N1024       N  0.61610432  0.49969463  0.79078166    -0.25900
N1025       N  0.56784242  0.57064091  0.87542446     0.01100
H1026       H  0.64617567  0.61129899  0.91574676     0.07000
H1027       H  0.48534598  0.53521872  0.91294790     0.07000
N1028       N  0.50896253  0.42459701  0.87847224    -0.26000
N1029       N  0.49325972  0.50103541  0.78956200    -0.25600
N1030       N  0.63028634  0.53516983  0.87752833     0.01500
C1031       C  0.51599145  0.39538297  0.74226063     0.42800
C1032       C  0.61858894  0.59863129  0.75702789    -0.06800
N1033       N  0.49293850  0.50172242  0.87590784    -0.25600
H1034       H  0.48637987  0.53431736  0.75093302     0.07000
N1035       N  0.54682456  0.41489330  0.76343796    -0.46800
H1036       H  0.64604354  0.60948066  0.74862160     0.07000
C1037       C  0.59368792  0.60650662  0.92499629     0.42700
C1038       C  0.62973451  0.49208524  0.76076279    -0.06300
Co1039     Co  0.61636202  0.55719876  0.83313714     0.73800
N1040       N  0.56246443  0.58516807  0.75977546    -0.46500
C1041       C  0.51707583  0.39914146  0.92933681     0.42900
N1042       N  0.65299118  0.55241234  0.90770554    -0.46500
Co1043     Co  0.53017408  0.53616514  0.83256493     0.73900
C1044       C  0.47898253  0.50897839  0.90592394    -0.06800
C1045       C  0.49066044  0.40118532  0.75985186    -0.06400
N1046       N  0.61621294  0.50029866  0.87696106    -0.25900
N1047       N  0.45678726  0.44848443  0.75931426    -0.46700
H1048       H  0.46396891  0.39307871  0.91943966     0.07000
C1049       C  0.61872394  0.60036833  0.90725106    -0.06800
Cl1050     Cl  0.55466604  0.50084677  0.83347297    -0.49800
C1051       C  0.59324060  0.60388420  0.73832024     0.42700
H1052       H  0.62343517  0.46649832  0.91413317     0.06900
N1053       N  0.56269251  0.58702108  0.90394712    -0.46500
C1054       C  0.53047389  0.34481402  0.00012971     0.03200
C1055       C  0.52508474  0.35567534  0.70341434    -0.12900
C1056       C  0.51347087  0.37798906  0.70462470     0.00700
C1057       C  0.50667418  0.38914631  0.00239304    -0.11400
C1058       C  0.51376118  0.37987141  0.96583483     0.03200
C1059       C  0.52522146  0.35753792  0.96488860    -0.10900
H1060       H  0.53052235  0.34736237  0.73097797     0.08800
H1061       H  0.49988085  0.40815831  0.00324184     0.06300
H1062       H  0.53157249  0.35131524  0.93650715     0.06200
C1063       C  0.39223769  0.47167208  0.00076274     0.03200
C1064       C  0.40700168  0.46957950  0.70297744    -0.12900
C1065       C  0.43598385  0.46713377  0.70221622     0.00700
C1066       C  0.44990159  0.46585458  0.99908720    -0.11400
C1067       C  0.43560538  0.46832014  0.96344953     0.03200
C1068       C  0.40670135  0.47096849  0.96430458    -0.10900
H1069       H  0.39708415  0.47158506  0.73135854     0.08800
H1070       H  0.47360735  0.46593620  0.99848198     0.06300
H1071       H  0.39693397  0.47460848  0.93669530     0.06200
C1072       C  0.71554269  0.52576675  0.00022057     0.03200
C1073       C  0.70116207  0.52787388  0.96426586    -0.12900
C1074       C  0.67350204  0.53245398  0.96429221     0.00700
C1075       C  0.66000805  0.53499552  0.00047618    -0.11400
C1076       C  0.67344402  0.53195514  0.70316131     0.03200
C1077       C  0.70133280  0.52768953  0.70294745    -0.10900
H1078       H  0.71081668  0.52502848  0.93615898     0.08800
H1079       H  0.63714393  0.53630652  0.00057668     0.06300
H1080       H  0.71062481  0.52398224  0.73087941     0.06200
C1081       C  0.58753012  0.66376032  0.00032484     0.03200
C1082       C  0.59049003  0.64935304  0.70235419    -0.12900
C1083       C  0.59726933  0.62324785  0.70152637     0.00700
C1084       C  0.60162254  0.61159388  0.99838065    -0.11400
C1085       C  0.59716151  0.62449436  0.96271495     0.03200
C1086       C  0.59035266  0.65065496  0.96377990    -0.10900
H1087       H  0.58708230  0.65809685  0.73079011     0.08800
H1088       H  0.60512557  0.59014924  0.99771030     0.06300
H1089       H  0.58602436  0.65984802  0.93615065     0.06200
C1090       C  0.85327374  0.53964582  0.71970802    -0.17700
C1091       C  0.82834873  0.54791857  0.71897869    -0.19900
C1092       C  0.79838220  0.52930773  0.69331454     0.20800
C1093       C  0.79355064  0.50215364  0.00135622    -0.02800
C1094       C  0.81865908  0.49377434  0.00212861    -0.05900
C1095       C  0.84866956  0.51261783  0.69481129     0.21000
C1096       C  0.81370255  0.46653425  0.97694325     0.19200
C1097       C  0.78370306  0.44782631  0.95140246    -0.17400
C1098       C  0.75885841  0.45612933  0.95063397    -0.19600
C1099       C  0.76355567  0.48323189  0.97542136     0.20700
C1100       C  0.73861269  0.49151345  0.97491030    -0.32600
C1101       C  0.74300577  0.51833154  0.00012683     0.01400
C1102       C  0.77300594  0.53713774  0.69263563    -0.23900
C1103       C  0.87357847  0.50420664  0.69521332    -0.28500
C1104       C  0.86908046  0.47746705  0.66969920     0.07100
C1105       C  0.83890867  0.45858792  0.97752338    -0.27200
H1106       H  0.87617524  0.55440377  0.73979662     0.11800
H1107       H  0.83247072  0.56882285  0.73853864     0.12900
H1108       H  0.77950255  0.42682851  0.93194383     0.12000
H1109       H  0.73591101  0.44130505  0.93060844     0.11200
H1110       H  0.71525153  0.47647435  0.95544616     0.16600
H1111       H  0.77657161  0.55788001  0.71206986     0.12500
H1112       H  0.89690351  0.51901031  0.71474401     0.15400
H1113       H  0.83507446  0.43763905  0.95822593     0.15200
C1114       C  0.35331596  0.54414176  0.71841823    -0.17700
C1115       C  0.32968522  0.55393814  0.71786888    -0.19900
C1116       C  0.29962567  0.53621008  0.69241075     0.20800
C1117       C  0.29333084  0.50844454  0.00059162    -0.02800
C1118       C  0.31711142  0.49848024  0.00123403    -0.05900
C1119       C  0.34720737  0.51645268  0.69358111     0.21000
C1120       C  0.31093810  0.47075564  0.97591302     0.19200
C1121       C  0.28088900  0.45310202  0.95037579    -0.17400
C1122       C  0.25727888  0.46299748  0.94973626    -0.19600
C1123       C  0.26331497  0.49064454  0.97464916     0.20700
C1124       C  0.23975058  0.50064555  0.97433724    -0.32600
C1125       C  0.24564100  0.52793213  0.66639572     0.01400
C1126       C  0.27569295  0.54571589  0.69193130    -0.23900
C1127       C  0.37098672  0.50681864  0.69374967    -0.28500
C1128       C  0.36530097  0.47956260  0.00182289     0.07100
C1129       C  0.33514563  0.46148708  0.97632524    -0.27200
H1130       H  0.37642537  0.55826450  0.73829219     0.11800
H1131       H  0.33489801  0.57535229  0.73735451     0.12900
H1132       H  0.27573657  0.43175905  0.93081075     0.12000
H1133       H  0.23427682  0.44901795  0.92971324     0.11200
H1134       H  0.21632579  0.48660849  0.95488569     0.16600
H1135       H  0.28044522  0.56703280  0.71130531     0.12500
H1136       H  0.39463912  0.52136420  0.71285981     0.15400
H1137       H  0.33069500  0.44039341  0.95679575     0.15200
C1138       C  0.85451829  0.25015044  0.61764844    -0.17700
C1139       C  0.82037750  0.21692413  0.61675730    -0.19900
C1140       C  0.81281831  0.18819822  0.64096439     0.20800
C1141       C  0.83965117  0.19291883  0.99994749    -0.02800
C1142       C  0.87409410  0.22650103  0.00093110    -0.05900
C1143       C  0.88148516  0.25506266  0.97609237     0.21000
C1144       C  0.90104477  0.23154040  0.02675795     0.19200
C1145       C  0.89313421  0.20291660  0.05152044    -0.17400
C1146       C  0.85889920  0.16948350  0.05047421    -0.19600
C1147       C  0.83203323  0.16419728  0.02472188     0.20700
C1148       C  0.79765841  0.13080830  0.02332947    -0.32600
C1149       C  0.77097889  0.12597323  0.99751509     0.01400
C1150       C  0.77873147  0.15488956  0.64005817    -0.23900
C1151       C  0.91568055  0.28820266  0.97689924    -0.28500
C1152       C  0.94290494  0.29338148  0.66865436     0.07100
C1153       C  0.93535014  0.26510562  0.02724050    -0.27200
H1154       H  0.85985405  0.27198570  0.59859899     0.11800
H1155       H  0.79990409  0.21365108  0.59704855     0.12900
H1156       H  0.91345466  0.20635452  0.07161172     0.12000
H1157       H  0.85343992  0.14775700  0.06978534     0.11200
H1158       H  0.79163459  0.10858116  0.04217070     0.16600
H1159       H  0.75789374  0.15167051  0.62100983     0.12500
H1160       H  0.92097818  0.31031441  0.95835410     0.15400
H1161       H  0.95632686  0.26916119  0.71343976     0.15200
C1162       C  0.52976068  0.21712998  0.93963423    -0.18300
C1163       C  0.52011862  0.24086197  0.94097363    -0.19900
C1164       C  0.53683063  0.26960141  0.96818255     0.20800
C1165       C  0.56404981  0.27502206  0.99378819    -0.02800
C1166       C  0.57365272  0.25090681  0.65923192    -0.05900
C1167       C  0.55620872  0.22177397  0.96550961     0.21000
C1168       C  0.60013014  0.25553900  0.68555048     0.19200
C1169       C  0.61740030  0.28484570  0.71213331    -0.17400
C1170       C  0.60783996  0.30878536  0.71333970    -0.19600
C1171       C  0.58078203  0.30374946  0.68807988     0.20700
C1172       C  0.56990613  0.32667594  0.69010384    -0.32600
C1173       C  0.54252031  0.32111411  0.99819807     0.01400
C1174       C  0.52629769  0.29261550  0.97058256    -0.23900
C1175       C  0.56462367  0.19704015  0.96556318    -0.28500
C1176       C  0.59024971  0.20081889  0.99228843     0.07100
C1177       C  0.60820270  0.23031411  0.68535022    -0.27200
H1178       H  0.51614775  0.19481155  0.91871296     0.11800
H1179       H  0.49928989  0.23649020  0.92105456     0.12900
H1180       H  0.63793494  0.28896171  0.73235098     0.12000
H1181       H  0.62125244  0.33094614  0.73445613     0.11200
H1182       H  0.58291401  0.34898472  0.71104802     0.16600
H1183       H  0.50487425  0.28791614  0.95141544     0.12500
H1184       H  0.55009335  0.17391588  0.94572183     0.15400
H1185       H  0.62809054  0.23337106  0.70586359     0.15200
C1186       C  0.29217368  0.79927549  0.94023209    -0.17700
C1187       C  0.25902273  0.76507001  0.94141344    -0.19900
C1188       C  0.23268059  0.75736671  0.96941418     0.20800
C1189       C  0.23961874  0.78429341  0.66322974    -0.02800
C1190       C  0.27318122  0.81882183  0.66212691    -0.05900
C1191       C  0.29949030  0.82617576  0.96715810     0.21000
C1192       C  0.28068178  0.84565405  0.68972587     0.19200
C1193       C  0.25427757  0.83773755  0.71789290    -0.17400
C1194       C  0.22081357  0.80346478  0.71883711    -0.19600
C1195       C  0.21325924  0.77652195  0.69171274     0.20700
C1196       C  0.17996284  0.74192587  0.69255382    -0.32600
C1197       C  0.17294711  0.71517747  0.66531251     0.01400
C1198       C  0.19962838  0.72307886  0.97083859    -0.23900
C1199       C  0.33308024  0.86003191  0.96682522    -0.28500
C1200       C  0.34111343  0.88681260  0.99448078     0.07100
C1201       C  0.31469431  0.87959406  0.68906820    -0.27200
H1202       H  0.31222816  0.80461467  0.91843751     0.11800
H1203       H  0.25400030  0.74459812  0.92046068     0.12900
H1204       H  0.25958387  0.85798844  0.73933292     0.12000
H1205       H  0.20091833  0.79796826  0.74092399     0.11200
H1206       H  0.15948302  0.73585003  0.71413588     0.16600
H1207       H  0.19491139  0.70225976  0.95061057     0.12500
H1208       H  0.35361640  0.86495827  0.94597972     0.15400
H1209       H  0.32083708  0.90014696  0.71055111     0.15200
C1210       C  0.51104141  0.73241037  0.72159204    -0.17700
C1211       C  0.51973671  0.70778332  0.72199580    -0.19900
C1212       C  0.54567883  0.71196474  0.69555056     0.20800
C1213       C  0.56343500  0.74161048  0.00223621    -0.02800
C1214       C  0.55464869  0.76644923  0.00180627    -0.05900
C1215       C  0.52815552  0.76166787  0.69473244     0.21000
C1216       C  0.57221603  0.79585798  0.97484274     0.19200
C1217       C  0.59868685  0.80047903  0.94899524    -0.17400
C1218       C  0.60731308  0.77584017  0.94934021    -0.19600
C1219       C  0.58964878  0.74617122  0.97559639     0.20700
C1220       C  0.59752745  0.72084117  0.97538170    -0.32600
C1221       C  0.57961758  0.69095033  0.00150006     0.01400
C1222       C  0.55390769  0.68688882  0.69503430    -0.23900
C1223       C  0.51920322  0.78619391  0.69362367    -0.28500
C1224       C  0.53645778  0.81551261  0.66659115     0.07100
C1225       C  0.56306940  0.82016329  0.97414713    -0.27200
H1226       H  0.49078796  0.72845793  0.74213679     0.11800
H1227       H  0.50596302  0.68529186  0.74283771     0.12900
H1228       H  0.61256498  0.82304474  0.92825176     0.12000
H1229       H  0.62762143  0.77984315  0.92885134     0.11200
H1230       H  0.61769783  0.72441776  0.95495094     0.16600
H1231       H  0.53969336  0.66377145  0.71503888     0.12500
H1232       H  0.49860440  0.78230949  0.71356857     0.15400
H1233       H  0.57722467  0.84312351  0.95393134     0.15200
loop_ 
_geom_bond_atom_site_label_1 
_geom_bond_atom_site_label_2 
_geom_bond_distance 
_geom_bond_site_symmetry_2 
_ccdc_geom_bond_type 
C1            C6   1.403   1_556  A
C1          C824   1.409       .  A
C1          C402   1.489       .  S
C2            C3   1.404       .  A
C2          C412   1.409       .  A
C2            H7   1.084       .  S
C3            C4   1.402       .  A
C3           C19   1.471       .  S
C4          C416   1.402       .  A
C4            H8   1.085       .  S
C5            C6   1.400       .  A
C5          C826   1.402       .  A
C5           C39   1.462       .  S
C6            H9   1.084       .  S
C10          C11   1.404       .  A
C10         C426   1.402       .  A
C10         C378   1.481       .  S
C11          C12   1.399       .  A
C11          H16   1.084       .  S
C12          C13   1.401       .  A
C12          C69   1.465       .  S
C13         C425   1.403       .  A
C13          H17   1.084       .  S
C14          C15   1.400       .  A
C14         C835   1.403   1_554  A
C14          C55   1.464       .  S
C15         C832   1.402   1_554  A
C15          H18   1.084       .  S
C19          C56   1.453       .  S
C19          N37   1.352       .  A
N20          N37   1.329       .  A
N20          N42   1.321       .  A
N20         Co57   2.103       .  S
C21          C59   1.447       .  S
C21          H66   1.081       .  S
C21          N46   1.333       .  A
H22          C63   1.081       .  S
C23          C27   1.452       .  S
C23          H52   1.081       .  S
C23          N47   1.337       .  A
Co24         N42   2.078       .  S
Co24         N32   2.078   1_565  S
Co24         N64   2.066       .  S
Co24         N40   2.096   1_565  S
Co24        Cl68   2.452   1_565  S
N25          C63   1.336       .  A
N25          N32   1.320       .  A
N25         Co26   2.071       .  S
Co26         N29   2.076       .  S
Co26         N46   2.062       .  S
Co26         N33   2.087       .  S
Co26        Cl68   2.449       .  S
C27          C74   1.457       .  S
C27          N65   1.345       .  A
N28          N35   1.321       .  A
N28          N58   1.329   1_565  A
N28         Co61   2.094   1_565  S
N29          N47   1.320       .  A
N29          N65   1.325       .  A
N30          C59   1.351       .  A
N30          N40   1.328       .  A
H31          C56   1.081       .  S
N32          N53   1.325       .  A
N33          N51   1.320       .  A
N33          N38   1.326       .  A
C34          C62   1.456       .  S
C34          C76   1.465       .  S
C34          N38   1.348       .  A
N35          C50   1.335       .  A
N35         Co57   2.073       .  S
C36          C39   1.450       .  S
C36          H70   1.081       .  S
C36          N64   1.335       .  A
C39          N60   1.350       .  A
N40          N46   1.320       .  A
N41          C67   1.338       .  A
N41          N43   1.321       .  A
N41         Co57   2.083       .  S
N42          C56   1.339       .  A
N43          N71   1.326       .  A
N43         Co61   2.086   1_565  S
H44          C67   1.081       .  S
H45          C62   1.081       .  S
N47         Co61   2.075       .  S
N48          N60   1.327       .  A
N48          N64   1.320       .  A
N48         Co57   2.093       .  S
C49          C63   1.452       .  S
C49          C83   1.458       .  S
C49          N53   1.346       .  A
C50          C69   1.451       .  S
C50          H54   1.081       .  S
N51          C62   1.340       .  A
N51         Co61   2.084       .  S
C55          C67   1.455       .  S
C55          N71   1.347       .  A
Co57        Cl68   2.450   1_565  S
N58          C69   1.350   1_545  A
C59          C85   1.460       .  S
Co61        Cl68   2.452       .  S
C72          C73   1.402       .  A
C72         C488   1.406       .  A
C72         C354   1.480       .  S
C73          C74   1.394       .  A
C73          H78   1.084       .  S
C74          C75   1.399       .  A
C75         C487   1.400       .  A
C75          H79   1.085       .  S
C76          C77   1.403       .  A
C76         C897   1.400   1_554  A
C77         C894   1.406   1_554  A
C77          H80   1.084       .  S
C81          C82   1.400       .  A
C81         C497   1.400       .  A
C81         C327   1.476       .  S
C82          C83   1.395       .  A
C82          H87   1.085       .  S
C83          C84   1.401       .  A
C84         C496   1.402       .  A
C84          H88   1.084       .  S
C85          C86   1.401       .  A
C85         C906   1.402   1_554  A
C86         C903   1.400   1_554  A
C86          H89   1.085       .  S
C90         C127   1.455       .  S
C90         C172   1.460       .  S
C90         N108   1.346       .  A
N91         N108   1.320       .  A
N91         N113   1.320       .  A
N91        Co128   2.072       .  S
C92         C130   1.461       .  S
C92         H137   1.081       .  S
C92         N117   1.346       .  A
H93         C134   1.081       .  S
C94          C98   1.456       .  S
C94         H123   1.081       .  S
C94         N118   1.344       .  A
Co95        N113   2.082       .  S
Co95        N103   2.076   1_455  S
Co95        N135   2.090       .  S
Co95        N111   2.065   1_455  S
Co95       Cl139   2.451       .  S
N96         C134   1.343       .  A
N96         N103   1.320       .  A
N96         Co97   2.090   1_655  S
Co97        N100   2.079       .  S
Co97        N117   2.097   1_455  S
Co97        N104   2.072       .  S
Co97       Cl139   2.447       .  S
C98         C154   1.464       .  S
C98         N136   1.347       .  A
N99         N106   1.320       .  A
N99         N129   1.319       .  A
N99        Co132   2.066       .  S
N100        N118   1.320       .  A
N100        N136   1.321       .  A
N101        C130   1.343       .  A
N101        N111   1.320       .  A
H102        C127   1.081       .  S
N103        N124   1.323       .  A
N104        N122   1.320       .  A
N104        N109   1.320       .  A
C105        C133   1.457       .  S
C105        C156   1.460       .  S
C105        N109   1.346       .  A
N106        C121   1.344       .  A
N106       Co128   2.087       .  S
C107        C110   1.458       .  S
C107        H141   1.081       .  S
C107        N135   1.344       .  A
C110        C174   1.462       .  S
C110        N131   1.345       .  A
N111        N117   1.320       .  A
N112        C138   1.342       .  A
N112        N114   1.320       .  A
N112       Co128   2.088       .  S
N113        C127   1.343       .  A
N114        N142   1.322       .  A
N114       Co132   2.073       .  S
H115        C138   1.081       .  S
H116        C133   1.081       .  S
N118       Co132   2.087       .  S
N119        N131   1.320       .  A
N119        N135   1.320       .  A
N119       Co128   2.069       .  S
C120        C134   1.458       .  S
C120        C163   1.466       .  S
C120        N124   1.347       .  A
C121        C140   1.458       .  S
C121        H125   1.081       .  S
N122        C133   1.343       .  A
N122       Co132   2.083       .  S
C126        C138   1.456       .  S
C126        C147   1.462       .  S
C126        N142   1.346       .  A
Co128      Cl139   2.448       .  S
N129        C140   1.344       .  A
C130        C165   1.463       .  S
Co132      Cl139   2.451       .  S
C140        C145   1.459       .  S
C143        C148   1.402       .  A
C143        C966   1.400   1_554  A
C143        C303   1.477   1_554  S
C144        C145   1.399       .  A
C144        C554   1.400       .  A
C144        H149   1.084       .  S
C145        C557   1.400       .  A
C146        C147   1.401       .  A
C146        C967   1.400   1_554  A
C146        H150   1.084       .  S
C147        C148   1.400       .  A
C148        H151   1.084       .  S
C152        C157   1.398       .  A
C152        C975   1.401   1_554  A
C152        C330   1.476       .  S
C153        C154   1.397   1_655  A
C153        C563   1.401       .  A
C153        H158   1.084       .  S
C154        C566   1.402       .  A
C155        C156   1.404       .  A
C155        C976   1.402   1_554  A
C155        H159   1.084       .  S
C156        C157   1.400   1_455  A
C157        H160   1.085       .  S
C161        C166   1.403       .  A
C161        C984   1.405   1_554  A
C161        C282   1.484       .  S
C162        C163   1.402       .  A
C162        C572   1.405       .  A
C162        H167   1.084       .  S
C163        C575   1.401       .  A
C164        C165   1.400       .  A
C164        C985   1.401   1_554  A
C164        H168   1.084       .  S
C165        C166   1.402       .  A
C166        H169   1.084       .  S
C170        C175   1.401   1_556  A
C170        C993   1.401       .  A
C170        C375   1.479       .  S
C171        C172   1.396       .  A
C171        C581   1.401       .  A
C171        H176   1.084       .  S
C172        C584   1.400       .  A
C173        C174   1.402   1_556  A
C173        C994   1.400       .  A
C173        H999   1.084       .  S
C174        C175   1.402       .  A
C175        H178   1.084       .  S
H177        C584   1.084       .  S
C179        C216   1.452       .  S
C179        C254   1.466       .  S
C179        N197   1.350       .  A
N180        N197   1.327       .  A
N180        N202   1.321       .  A
N180       Co217   2.096       .  S
C181        C219   1.460       .  S
C181        H226   1.081       .  S
C181        N206   1.346       .  A
H182        C223   1.081       .  S
C183        C187   1.452       .  S
C183        H212   1.081       .  S
C183        N207   1.337       .  A
Co184       N202   2.076       .  S
Co184       N192   2.069       .  S
Co184       N224   2.071       .  S
Co184       N200   2.069       .  S
Co184      Cl228   2.452       .  S
N185        C223   1.345       .  A
N185        N192   1.319       .  A
N185       Co186   2.092       .  S
Co186       N189   2.086       .  S
Co186       N206   2.092       .  S
Co186       N193   2.085       .  S
Co186      Cl228   2.452       .  S
C187        C243   1.461       .  S
C187        N225   1.348       .  A
N188        N195   1.320       .  A
N188        N218   1.322       .  A
N188       Co221   2.075       .  S
N189        N207   1.321       .  A
N189        N225   1.326       .  A
N190        C219   1.344       .  A
N190        N200   1.319       .  A
H191        C216   1.081       .  S
N192        N213   1.320       .  A
N193        N211   1.321       .  A
N193        N198   1.325       .  A
C194        C222   1.454       .  S
C194        C245   1.462       .  S
C194        N198   1.347       .  A
N195        C210   1.345       .  A
N195       Co217   2.095       .  S
C196        C199   1.450       .  S
C196        H230   1.081       .  S
C196        N224   1.337       .  A
C199        C252   1.466       .  S
C199        N220   1.352       .  A
N200        N206   1.320       .  A
N201        C227   1.345       .  A
N201        N203   1.321       .  A
N201       Co217   2.097       .  S
N202        C216   1.338       .  A
N203        N231   1.323       .  A
N203       Co221   2.080       .  S
H204        C227   1.081       .  S
H205        C222   1.081       .  S
N207       Co221   2.079       .  S
N208        N220   1.328       .  A
N208        N224   1.320       .  A
N208       Co217   2.098       .  S
C209        C223   1.461       .  S
C209        C234   1.464       .  S
C209        N213   1.345       .  A
C210        C229   1.460       .  S
C210        H214   1.081       .  S
N211        C222   1.339       .  A
N211       Co221   2.079       .  S
C215        C227   1.461       .  S
C215        C263   1.470       .  S
C215        N231   1.347       .  A
Co217      Cl228   2.451       .  S
N218        C229   1.345       .  A
C219        C236   1.463       .  S
Co221      Cl228   2.454       .  S
C229        C261   1.466       .  S
C232        C237   1.401       .  A
C232        C644   1.402       .  A
C232        C351   1.482       .  S
C233        C234   1.404       .  A
C233       C1054   1.402       .  A
C233        H238   1.084       .  S
C234       C1057   1.403       .  A
C235        C236   1.401       .  A
C235        C645   1.403       .  A
C235        H239   1.084       .  S
C236        C237   1.399       .  A
C237        H240   1.085       .  S
C241        C246   1.403       .  A
C241        C653   1.404       .  A
C241        C306   1.478       .  S
C242        C243   1.398       .  A
C242       C1063   1.403       .  A
C242        H247   1.084       .  S
C243       C1066   1.400   1_554  A
C244        C245   1.401       .  A
C244        C654   1.400       .  A
C244        H248   1.084       .  S
C245        C246   1.400       .  A
C246        H249   1.084       .  S
C250        C251   1.406       .  A
C250        C666   1.405       .  A
C250        C279   1.486       .  S
C251        C252   1.402       .  A
C251        H256   1.084       .  S
C252        C253   1.401       .  A
C253        C665   1.402       .  A
C253        H257   1.085       .  S
C254        C255   1.403       .  A
C254       C1075   1.402       .  A
C255       C1072   1.405       .  A
C255        H258   1.084       .  S
C259        C264   1.408       .  A
C259        C671   1.404       .  A
C259        C399   1.488       .  S
C260        C261   1.402       .  A
C260       C1081   1.404       .  A
C260        H265   1.084       .  S
C261       C1084   1.401   1_554  A
C262        C263   1.402       .  A
C262        C672   1.401       .  A
C262        H266   1.084       .  S
C263        C264   1.405       .  A
C264        H267   1.084       .  S
C268        C269   1.400       .  A
C268        C273   1.404       .  A
C268        H284   1.084       .  S
C269        C270   1.404       .  A
C269        H285   1.083       .  S
C270        C280   1.405       .  A
C270       C1093   1.412       .  A
C271        C277   1.411       .  A
C271        C272   1.412       .  A
C271        C681   1.412       .  A
C272        C274   1.412       .  A
C272        C684   1.412       .  A
C273        C281   1.404       .  A
C273       C1094   1.412       .  A
C274        C283   1.402       .  A
C274        C275   1.403       .  A
C275        C276   1.398       .  A
C275        H286   1.083       .  S
C276        C277   1.403       .  A
C276        H287   1.084       .  S
C277        C278   1.401       .  A
C278        C279   1.406       .  A
C278        H288   1.085       .  S
C279        C691   1.408       .  A
C280       C1101   1.408       .  A
C280        H289   1.084       .  S
C281        C282   1.408       .  A
C281        H290   1.084       .  S
C282       C1105   1.405   1_554  A
C283        C693   1.405       .  A
C283        H291   1.084       .  S
C292        C293   1.396       .  A
C292        C297   1.402       .  A
C292        H308   1.084       .  S
C293        C294   1.402       .  A
C293        H309   1.083       .  S
C294        C304   1.399       .  A
C294       C1117   1.412       .  A
C295        C301   1.411       .  A
C295        C296   1.409       .  A
C295        C705   1.412       .  A
C296        C298   1.412       .  A
C296        C708   1.411       .  A
C297        C305   1.397       .  A
C297       C1118   1.411       .  A
C298        C307   1.403       .  A
C298        C299   1.404       .  A
C299        C300   1.399       .  A
C299        H310   1.083       .  S
C300        C301   1.403       .  A
C300        H311   1.084       .  S
C301        C302   1.401       .  A
C302        C714   1.406       .  A
C302        H312   1.085       .  S
C303        C304   1.404   1_556  A
C303       C1124   1.406       .  A
C304        H313   1.084       .  S
C305       C1128   1.405       .  A
C305        H314   1.085       .  S
C306        C307   1.406       .  A
C306        C716   1.405       .  A
C307        H315   1.084       .  S
C316        C317   1.394       .  A
C316       C1143   1.401       .  A
C316        H332   1.084       .  S
C317        C318   1.401       .  A
C317        H333   1.084       .  S
C318        C328   1.394       .  A
C318       C1141   1.411       .  A
C319        C325   1.412       .  A
C319        C320   1.407       .  A
C319        C729   1.411       .  A
C320        C322   1.412       .  A
C320        C321   1.410       .  A
C321        C329   1.393       .  A
C321        C727   1.401       .  A
C322        C331   1.404       .  A
C322        C323   1.404       .  A
C323        C324   1.400       .  A
C323        H334   1.084       .  S
C324        C325   1.404       .  A
C324        H335   1.083       .  S
C325        C326   1.402       .  A
C326        C327   1.406       .  A
C326        H336   1.084       .  S
C327        C739   1.405       .  A
C328       C1149   1.405       .  A
C328        H337   1.085       .  S
C329        C741   1.404       .  A
C329        H338   1.085       .  S
C330       C1151   1.404   1_554  A
C330       C1153   1.406       .  A
C331        C741   1.406       .  A
C331        H750   1.084       .  S
H339       C1153   1.084       .  S
C340        C341   1.395       .  A
C340        C345   1.402       .  A
C340        H356   1.084       .  S
C341        C342   1.402       .  A
C341        H357   1.083       .  S
C342        C352   1.397       .  A
C342        C343   1.411       .  A
C343        C760   1.411       .  A
C343        C755   1.410       .  A
C344        C346   1.412   1_556  A
C344       C1165   1.410       .  A
C344       C1167   1.410       .  A
C345        C353   1.395       .  A
C345        C755   1.410       .  A
C346        C355   1.405       .  A
C346        C347   1.404       .  A
C347        C348   1.401       .  A
C347        H358   1.083       .  S
C348        C349   1.404       .  A
C348        H359   1.084       .  S
C349        C350   1.405       .  A
C349       C1165   1.411   1_554  A
C350       C1173   1.408   1_554  A
C350        H360   1.084       .  S
C351        C352   1.404       .  A
C351        C761   1.408       .  A
C352        H361   1.084       .  S
C353        C354   1.405       .  A
C353        H362   1.085       .  S
C354        C766   1.407       .  A
C355       C1176   1.407   1_554  A
C355        H363   1.084       .  S
C364        C365   1.393       .  A
C364        C369   1.401       .  A
C364        H380   1.084       .  S
C365        C366   1.401       .  A
C365        H381   1.084       .  S
C366        C376   1.394       .  A
C366        C778   1.410       .  A
C367        C373   1.412   1_556  A
C367        C368   1.408       .  A
C367       C1188   1.410       .  A
C368        C370   1.412   1_556  A
C368       C1191   1.411       .  A
C369        C377   1.394       .  A
C369        C779   1.411       .  A
C370        C379   1.405       .  A
C370        C371   1.404       .  A
C371        C372   1.401       .  A
C371        H382   1.083       .  S
C372        C373   1.404       .  A
C372        H383   1.084       .  S
C373        C374   1.405       .  A
C374        C375   1.407   1_554  A
C374        H384   1.084       .  S
C375       C1198   1.405       .  A
C376        C786   1.405       .  A
C376        H385   1.085       .  S
C377        C378   1.405       .  A
C377        H386   1.085       .  S
C378        C790   1.408       .  A
C379       C1200   1.408   1_554  A
C379        H387   1.084       .  S
C388        C389   1.400       .  A
C388        C393   1.404       .  A
C388        H404   1.083       .  S
C389        C390   1.404       .  A
C389        H405   1.084       .  S
C390        C400   1.404       .  A
C390       C1213   1.411       .  A
C391        C397   1.412       .  A
C391        C392   1.413       .  A
C391        C801   1.411       .  A
C392        C394   1.411       .  A
C392        C804   1.411       .  A
C393        C401   1.405       .  A
C393       C1214   1.411       .  A
C394        C403   1.402       .  A
C394        C395   1.403       .  A
C395        C396   1.398       .  A
C395        H406   1.084       .  S
C396        C397   1.403       .  A
C396        H407   1.083       .  S
C397        C398   1.403       .  A
C398        C399   1.407       .  A
C398        H408   1.084       .  S
C399        C811   1.409       .  A
C400       C1221   1.409       .  A
C400        H409   1.084       .  S
C401        C402   1.410   1_554  A
C401        H410   1.083       .  S
C402       C1225   1.407       .  A
C403        C813   1.407       .  A
C403        H411   1.084       .  S
C412        C417   1.403       .  A
C412        C813   1.489       .  S
C413        C823   1.409       .  A
C413        C414   1.404       .  A
C413        H418   1.084       .  S
C414        C415   1.402       .  A
C414        C430   1.471       .  S
C415        C827   1.402       .  A
C415        H419   1.085       .  S
C416        C417   1.400       .  A
C416        C450   1.462       .  S
C417        H420   1.084       .  S
C421        C422   1.404       .  A
C421        C837   1.402       .  A
C421        C789   1.481       .  S
C422        C423   1.399       .  A
C422        H427   1.084       .  S
C423        C424   1.401       .  A
C423        C480   1.464       .  S
C424        C836   1.403       .  A
C424        H428   1.084       .  S
C425        C426   1.400       .  A
C425        C466   1.464       .  S
C426        H429   1.084       .  S
C430        C467   1.453       .  S
C430        N448   1.352       .  A
N431        N448   1.329       .  A
N431        N453   1.321       .  A
N431       Co468   2.102       .  S
C432        C470   1.447       .  S
C432        H477   1.081       .  S
C432        N457   1.333       .  A
H433        C474   1.081       .  S
C434        C438   1.452       .  S
C434        H463   1.081       .  S
C434        N458   1.337       .  A
Co435       N453   2.078       .  S
Co435       N443   2.078   1_565  S
Co435       N475   2.066       .  S
Co435       N451   2.096   1_565  S
Co435      Cl479   2.452   1_565  S
N436        C474   1.336       .  A
N436        N443   1.320       .  A
N436       Co437   2.071       .  S
Co437       N440   2.076       .  S
Co437       N457   2.062       .  S
Co437       N444   2.087       .  S
Co437      Cl479   2.449       .  S
C438        C485   1.457       .  S
C438        N476   1.345       .  A
N439        N446   1.321       .  A
N439        N469   1.328   1_565  A
N439       Co472   2.093   1_565  S
N440        N458   1.320       .  A
N440        N476   1.325       .  A
N441        C470   1.351       .  A
N441        N451   1.328       .  A
H442        C467   1.081       .  S
N443        N464   1.325       .  A
N444        N462   1.320       .  A
N444        N449   1.326       .  A
C445        C473   1.455       .  S
C445        C487   1.465       .  S
C445        N449   1.348       .  A
N446        C461   1.335       .  A
N446       Co468   2.073       .  S
C447        C450   1.450       .  S
C447        H481   1.081       .  S
C447        N475   1.335       .  A
C450        N471   1.350       .  A
N451        N457   1.320       .  A
N452        C478   1.338       .  A
N452        N454   1.321       .  A
N452       Co468   2.082       .  S
N453        C467   1.339       .  A
N454        N482   1.326       .  A
N454       Co472   2.086   1_565  S
H455        C478   1.081       .  S
H456        C473   1.081       .  S
N458       Co472   2.075       .  S
N459        N471   1.327       .  A
N459        N475   1.320       .  A
N459       Co468   2.093       .  S
C460        C474   1.452       .  S
C460        C494   1.459       .  S
C460        N464   1.346       .  A
C461        C480   1.451       .  S
C461        H465   1.081       .  S
N462        C473   1.340       .  A
N462       Co472   2.084       .  S
C466        C478   1.455       .  S
C466        N482   1.347       .  A
Co468      Cl479   2.450   1_565  S
N469        C480   1.350   1_545  A
C470        C496   1.460       .  S
Co472      Cl479   2.452       .  S
C483        C484   1.402       .  A
C483        C899   1.406       .  A
C483        C765   1.480       .  S
C484        C485   1.395       .  A
C484        H489   1.084       .  S
C485        C486   1.399       .  A
C486        C898   1.400       .  A
C486        H490   1.085       .  S
C487        C488   1.403       .  A
C488        H491   1.084       .  S
C492        C493   1.400       .  A
C492        C908   1.400       .  A
C492        C738   1.476       .  S
C493        C494   1.395       .  A
C493        H498   1.085       .  S
C494        C495   1.401       .  A
C495        C907   1.402       .  A
C495        H499   1.084       .  S
C496        C497   1.401       .  A
C497        H500   1.085       .  S
C501        C538   1.455       .  S
C501        C583   1.460       .  S
C501        N519   1.346       .  A
N502        N519   1.320       .  A
N502        N524   1.320       .  A
N502       Co539   2.072       .  S
C503        C541   1.461       .  S
C503        H548   1.081       .  S
C503        N528   1.346       .  A
H504        C545   1.081       .  S
C505        C509   1.456       .  S
C505        H534   1.081       .  S
C505        N529   1.344       .  A
Co506       N524   2.082       .  S
Co506       N514   2.076   1_455  S
Co506       N546   2.090       .  S
Co506       N522   2.065   1_455  S
Co506      Cl550   2.451       .  S
N507        C545   1.343       .  A
N507        N514   1.320       .  A
N507       Co508   2.090   1_655  S
Co508       N511   2.079       .  S
Co508       N528   2.097   1_455  S
Co508       N515   2.072       .  S
Co508      Cl550   2.447       .  S
C509        C565   1.464       .  S
C509        N547   1.347       .  A
N510        N517   1.320       .  A
N510        N540   1.319       .  A
N510       Co543   2.066       .  S
N511        N529   1.320       .  A
N511        N547   1.321       .  A
N512        C541   1.343       .  A
N512        N522   1.320       .  A
H513        C538   1.081       .  S
N514        N535   1.323       .  A
N515        N533   1.320       .  A
N515        N520   1.320       .  A
C516        C544   1.457       .  S
C516        C567   1.460       .  S
C516        N520   1.346       .  A
N517        C532   1.344       .  A
N517       Co539   2.087       .  S
C518        C521   1.458       .  S
C518        H552   1.081       .  S
C518        N546   1.344       .  A
C521        C585   1.462       .  S
C521        N542   1.345       .  A
N522        N528   1.320       .  A
N523        C549   1.342       .  A
N523        N525   1.320       .  A
N523       Co539   2.088       .  S
N524        C538   1.343       .  A
N525        N553   1.322       .  A
N525       Co543   2.073       .  S
H526        C549   1.081       .  S
H527        C544   1.081       .  S
N529       Co543   2.087       .  S
N530        N542   1.320       .  A
N530        N546   1.320       .  A
N530       Co539   2.069       .  S
C531        C545   1.458       .  S
C531        C574   1.466       .  S
C531        N535   1.347       .  A
C532        C551   1.458       .  S
C532        H536   1.081       .  S
N533        C544   1.343       .  A
N533       Co543   2.083       .  S
C537        C549   1.456       .  S
C537        C558   1.462       .  S
C537        N553   1.346       .  A
Co539      Cl550   2.448       .  S
N540        C551   1.344       .  A
C541        C576   1.463       .  S
Co543      Cl550   2.451       .  S
C551        C556   1.459       .  S
C554        C559   1.402       .  A
C554        C714   1.477       .  S
C555        C965   1.400       .  A
C555        C556   1.399       .  A
C555        H560   1.084       .  S
C556        C968   1.400       .  A
C557        C558   1.401       .  A
C557        H561   1.084       .  S
C558        C559   1.400       .  A
C559        H562   1.084       .  S
C563        C568   1.398       .  A
C563        C741   1.476       .  S
C564        C974   1.401       .  A
C564        C565   1.397   1_655  A
C564        H569   1.084       .  S
C565        C977   1.402       .  A
C566        C567   1.404       .  A
C566        H570   1.084       .  S
C567        C568   1.400   1_455  A
C568        H571   1.085       .  S
C572        C577   1.403       .  A
C572        C693   1.483       .  S
C573        C983   1.405       .  A
C573        C574   1.402       .  A
C573        H578   1.084       .  S
C574        C986   1.401       .  A
C575        C576   1.400       .  A
C575        H579   1.084       .  S
C576        C577   1.402       .  A
C577        H580   1.084       .  S
C581        C586   1.401       .  A
C581        C786   1.479       .  S
C582        C992   1.401       .  A
C582        C583   1.396       .  A
C582        H587   1.084       .  S
C583        C995   1.400       .  A
C584        C585   1.402       .  A
C585        C586   1.402       .  A
C586        H589   1.084       .  S
H588        C995   1.084       .  S
C590        C627   1.452       .  S
C590        C665   1.466       .  S
C590        N608   1.350       .  A
N591        N608   1.327       .  A
N591        N613   1.321       .  A
N591       Co628   2.096       .  S
C592        C630   1.460       .  S
C592        H637   1.081       .  S
C592        N617   1.346       .  A
H593        C634   1.081       .  S
C594        C598   1.452       .  S
C594        H623   1.081       .  S
C594        N618   1.337       .  A
Co595       N613   2.076       .  S
Co595       N603   2.069       .  S
Co595       N635   2.071       .  S
Co595       N611   2.069       .  S
Co595      Cl639   2.452       .  S
N596        C634   1.345       .  A
N596        N603   1.319       .  A
N596       Co597   2.092       .  S
Co597       N600   2.086       .  S
Co597       N617   2.092       .  S
Co597       N604   2.085       .  S
Co597      Cl639   2.452       .  S
C598        C654   1.461       .  S
C598        N636   1.348       .  A
N599        N606   1.321       .  A
N599        N629   1.322       .  A
N599       Co632   2.075       .  S
N600        N618   1.321       .  A
N600        N636   1.326       .  A
N601        C630   1.344       .  A
N601        N611   1.319       .  A
H602        C627   1.081       .  S
N603        N624   1.320       .  A
N604        N622   1.321       .  A
N604        N609   1.325       .  A
C605        C633   1.454       .  S
C605        C656   1.462       .  S
C605        N609   1.347       .  A
N606        C621   1.345       .  A
N606       Co628   2.095       .  S
C607        C610   1.450       .  S
C607        H641   1.081       .  S
C607        N635   1.337       .  A
C610        C663   1.466       .  S
C610        N631   1.352       .  A
N611        N617   1.320       .  A
N612        C638   1.345       .  A
N612        N614   1.321       .  A
N612       Co628   2.097       .  S
N613        C627   1.338       .  A
N614        N642   1.323       .  A
N614       Co632   2.080       .  S
H615        C638   1.081       .  S
H616        C633   1.081       .  S
N618       Co632   2.079       .  S
N619        N631   1.328       .  A
N619        N635   1.320       .  A
N619       Co628   2.098       .  S
C620        C634   1.461       .  S
C620        C645   1.464       .  S
C620        N624   1.345       .  A
C621        C640   1.460       .  S
C621        H625   1.081       .  S
N622        C633   1.339       .  A
N622       Co632   2.079       .  S
C626        C638   1.461       .  S
C626        C674   1.470       .  S
C626        N642   1.347       .  A
Co628      Cl639   2.451       .  S
N629        C640   1.345       .  A
C630        C647   1.463       .  S
Co632      Cl639   2.454       .  S
C640        C672   1.466       .  S
C643       C1055   1.402       .  A
C643        C648   1.401       .  A
C643        C762   1.482       .  S
C644        C645   1.404       .  A
C644        H649   1.084       .  S
C646       C1056   1.403       .  A
C646        C647   1.401       .  A
C646        H650   1.084       .  S
C647        C648   1.399       .  A
C648        H651   1.085       .  S
C652       C1064   1.404       .  A
C652        C657   1.403       .  A
C652        C717   1.478       .  S
C653        C654   1.398       .  A
C653        H658   1.084       .  S
C655       C1065   1.400       .  A
C655        C656   1.401       .  A
C655        H659   1.084       .  S
C656        C657   1.400       .  A
C657        H660   1.084       .  S
C661        C662   1.406       .  A
C661       C1077   1.405       .  A
C661        C690   1.486       .  S
C662        C663   1.402       .  A
C662        H667   1.084       .  S
C663        C664   1.401       .  A
C664       C1076   1.402       .  A
C664        H668   1.085       .  S
C665        C666   1.403       .  A
C666        H669   1.084       .  S
C670       C1082   1.404       .  A
C670        C675   1.408       .  A
C670        C810   1.488       .  S
C671        C672   1.402       .  A
C671        H676   1.084       .  S
C673       C1083   1.401       .  A
C673        C674   1.402       .  A
C673        H677   1.084       .  S
C674        C675   1.405       .  A
C675        H678   1.084       .  S
C679        C680   1.400       .  A
C679        C684   1.404       .  A
C679        H695   1.084       .  S
C680        C681   1.404       .  A
C680        H696   1.083       .  S
C681        C691   1.405       .  A
C682       C1092   1.412       .  A
C682        C688   1.411       .  A
C682        C683   1.412       .  A
C683        C685   1.412       .  A
C683       C1095   1.411       .  A
C684        C692   1.404       .  A
C685        C694   1.402       .  A
C685        C686   1.403       .  A
C686        C687   1.398       .  A
C686        H697   1.083       .  S
C687        C688   1.403       .  A
C687        H698   1.084       .  S
C688        C689   1.401       .  A
C689        C690   1.407       .  A
C689        H699   1.085       .  S
C690       C1102   1.408       .  A
C691        H700   1.084       .  S
C692        C693   1.408       .  A
C692        H701   1.084       .  S
C694       C1104   1.405       .  A
C694        H702   1.084       .  S
C703        C704   1.396       .  A
C703        C708   1.402       .  A
C703        H719   1.084       .  S
C704        C705   1.402       .  A
C704        H720   1.083       .  S
C705        C715   1.399       .  A
C706       C1116   1.412       .  A
C706        C712   1.411       .  A
C706        C707   1.409       .  A
C707        C709   1.412       .  A
C707       C1119   1.411       .  A
C708        C716   1.397       .  A
C709        C718   1.403       .  A
C709        C710   1.404       .  A
C710        C711   1.399       .  A
C710        H721   1.083       .  S
C711        C712   1.403       .  A
C711        H722   1.084       .  S
C712        C713   1.401       .  A
C713       C1125   1.406       .  A
C713        H723   1.085       .  S
C714        C715   1.404       .  A
C715        H724   1.084       .  S
C716        H725   1.085       .  S
C717       C1127   1.405       .  A
C717        C718   1.406       .  A
C718        H726   1.084       .  S
C727        C728   1.394       .  A
C727        H743   1.084       .  S
C728        C729   1.402       .  A
C728        H744   1.084       .  S
C729        C739   1.394       .  A
C730       C1140   1.411       .  A
C730        C736   1.412       .  A
C730        C731   1.407       .  A
C731        C733   1.412       .  A
C731        C732   1.410       .  A
C732       C1138   1.401       .  A
C732        C740   1.393       .  A
C733        C742   1.404       .  A
C733        C734   1.404       .  A
C734        C735   1.400       .  A
C734        H745   1.084       .  S
C735        C736   1.404       .  A
C735        H746   1.083       .  S
C736        C737   1.402       .  A
C737        C738   1.406       .  A
C737        H747   1.084       .  S
C738       C1150   1.405       .  A
C739        H748   1.085       .  S
C740       C1152   1.404       .  A
C740        H749   1.085       .  S
C742       C1152   1.406       .  A
C742       H1161   1.084       .  S
C751        C752   1.395       .  A
C751        C756   1.402       .  A
C751        H767   1.084       .  S
C752        C753   1.402       .  A
C752        H768   1.083       .  S
C753        C763   1.397       .  A
C753        C754   1.411       .  A
C754       C1171   1.411       .  A
C754       C1166   1.410       .  A
C755        C757   1.412       .  A
C756       C1166   1.410       .  A
C756        C764   1.395       .  A
C757        C766   1.405       .  A
C757        C758   1.404       .  A
C758        C759   1.401       .  A
C758        H769   1.083       .  S
C759        C760   1.404       .  A
C759        H770   1.084       .  S
C760        C761   1.405       .  A
C761        H771   1.084       .  S
C762       C1172   1.408       .  A
C762        C763   1.404       .  A
C763        H772   1.084       .  S
C764        C765   1.405       .  A
C764        H773   1.085       .  S
C765       C1177   1.407       .  A
C766        H774   1.084       .  S
C775        C776   1.393       .  A
C775        C780   1.401       .  A
C775        H791   1.084       .  S
C776        C777   1.401       .  A
C776        H792   1.084       .  S
C777        C787   1.394       .  A
C777       C1189   1.410       .  A
C778        C784   1.412       .  A
C778        C779   1.409       .  A
C779        C781   1.412       .  A
C780       C1190   1.411       .  A
C780        C788   1.394       .  A
C781        C790   1.405       .  A
C781        C782   1.405       .  A
C782        C783   1.401       .  A
C782        H793   1.083       .  S
C783        C784   1.404       .  A
C783        H794   1.084       .  S
C784        C785   1.405       .  A
C785        C786   1.407       .  A
C785        H795   1.084       .  S
C787       C1197   1.405       .  A
C787        H796   1.085       .  S
C788        C789   1.405       .  A
C788        H797   1.085       .  S
C789       C1201   1.408       .  A
C790        H798   1.084       .  S
C799        C800   1.400       .  A
C799        C804   1.404       .  A
C799        H815   1.083       .  S
C800        C801   1.404       .  A
C800        H816   1.084       .  S
C801        C811   1.404       .  A
C802       C1212   1.411       .  A
C802        C808   1.412       .  A
C802        C803   1.413       .  A
C803        C805   1.411       .  A
C803       C1215   1.411       .  A
C804        C812   1.405       .  A
C805        C814   1.402       .  A
C805        C806   1.403       .  A
C806        C807   1.398       .  A
C806        H817   1.084       .  S
C807        C808   1.403       .  A
C807        H818   1.083       .  S
C808        C809   1.403       .  A
C809        C810   1.407       .  A
C809        H819   1.084       .  S
C810       C1222   1.409       .  A
C811        H820   1.084       .  S
C812        C813   1.410       .  A
C812        H821   1.083       .  S
C814       C1224   1.407       .  A
C814        H822   1.084       .  S
C823        C828   1.403       .  A
C823       C1224   1.489       .  S
C824        C825   1.404       .  A
C824        H829   1.084       .  S
C825        C826   1.402   1_556  A
C825        C841   1.471       .  S
C826        H830   1.085       .  S
C827        C828   1.400       .  A
C827        C861   1.462       .  S
C828        H831   1.084       .  S
C832        C833   1.404       .  A
C832       C1200   1.481       .  S
C833        C834   1.399       .  A
C833        H838   1.084       .  S
C834        C835   1.402       .  A
C834        C891   1.465       .  S
C835        H839   1.084       .  S
C836        C837   1.400       .  A
C836        C877   1.464       .  S
C837        H840   1.084       .  S
C841        C878   1.453       .  S
C841        N859   1.352       .  A
N842        N859   1.329       .  A
N842        N864   1.321       .  A
N842       Co879   2.102       .  S
C843        C881   1.447       .  S
C843        H888   1.081       .  S
C843        N868   1.333       .  A
H844        C885   1.081       .  S
C845        C849   1.452       .  S
C845        H874   1.081       .  S
C845        N869   1.337       .  A
Co846       N864   2.078       .  S
Co846       N854   2.078   1_565  S
Co846       N886   2.066       .  S
Co846       N862   2.096   1_565  S
Co846      Cl890   2.452   1_565  S
N847        C885   1.336       .  A
N847        N854   1.320       .  A
N847       Co848   2.071       .  S
Co848       N851   2.076       .  S
Co848       N868   2.062       .  S
Co848       N855   2.087       .  S
Co848      Cl890   2.449       .  S
C849        C896   1.457       .  S
C849        N887   1.345       .  A
N850        N857   1.321       .  A
N850        N880   1.329   1_565  A
N850       Co883   2.094   1_565  S
N851        N869   1.320       .  A
N851        N887   1.325       .  A
N852        C881   1.351       .  A
N852        N862   1.328       .  A
H853        C878   1.081       .  S
N854        N875   1.325       .  A
N855        N873   1.320       .  A
N855        N860   1.326       .  A
C856        C884   1.455       .  S
C856        C898   1.465       .  S
C856        N860   1.348       .  A
N857        C872   1.335       .  A
N857       Co879   2.073       .  S
C858        C861   1.450       .  S
C858        H892   1.081       .  S
C858        N886   1.335       .  A
C861        N882   1.350       .  A
N862        N868   1.320       .  A
N863        C889   1.338       .  A
N863        N865   1.321       .  A
N863       Co879   2.082       .  S
N864        C878   1.339       .  A
N865        N893   1.326       .  A
N865       Co883   2.086   1_565  S
H866        C889   1.081       .  S
H867        C884   1.081       .  S
N869       Co883   2.075       .  S
N870        N882   1.327       .  A
N870        N886   1.320       .  A
N870       Co879   2.093       .  S
C871        C885   1.452       .  S
C871        C905   1.458       .  S
C871        N875   1.346       .  A
C872        C891   1.451       .  S
C872        H876   1.081       .  S
N873        C884   1.340       .  A
N873       Co883   2.084       .  S
C877        C889   1.455       .  S
C877        N893   1.347       .  A
Co879      Cl890   2.450   1_565  S
N880        C891   1.350   1_545  A
C881        C907   1.460       .  S
Co883      Cl890   2.452       .  S
C894        C895   1.402       .  A
C894       C1176   1.480       .  S
C895        C896   1.395       .  A
C895        H900   1.084       .  S
C896        C897   1.399       .  A
C897        H901   1.085       .  S
C898        C899   1.403       .  A
C899        H902   1.084       .  S
C903        C904   1.400       .  A
C903       C1149   1.476       .  S
C904        C905   1.395       .  A
C904        H909   1.085       .  S
C905        C906   1.401       .  A
C906        H910   1.084       .  S
C907        C908   1.401       .  A
C908        H911   1.085       .  S
C912        C949   1.455       .  S
C912        C994   1.460       .  S
C912        N930   1.346       .  A
N913        N930   1.320       .  A
N913        N935   1.320       .  A
N913       Co950   2.072       .  S
C914        C952   1.461       .  S
C914        H959   1.081       .  S
C914        N939   1.346       .  A
H915        C956   1.081       .  S
C916        C920   1.456       .  S
C916        H945   1.081       .  S
C916        N940   1.344       .  A
Co917       N935   2.081       .  S
Co917       N925   2.076   1_455  S
Co917       N957   2.090       .  S
Co917       N933   2.065   1_455  S
Co917      Cl961   2.451       .  S
N918        C956   1.343       .  A
N918        N925   1.320       .  A
N918       Co919   2.090   1_655  S
Co919       N922   2.079       .  S
Co919       N939   2.097   1_455  S
Co919       N926   2.072       .  S
Co919      Cl961   2.447       .  S
C920        C976   1.464       .  S
C920        N958   1.347       .  A
N921        N928   1.320       .  A
N921        N951   1.319       .  A
N921       Co954   2.067       .  S
N922        N940   1.320       .  A
N922        N958   1.321       .  A
N923        C952   1.343       .  A
N923        N933   1.320       .  A
H924        C949   1.081       .  S
N925        N946   1.323       .  A
N926        N944   1.320       .  A
N926        N931   1.320       .  A
C927        C955   1.457       .  S
C927        C978   1.460       .  S
C927        N931   1.346       .  A
N928        C943   1.344       .  A
N928       Co950   2.087       .  S
C929        C932   1.458       .  S
C929        H963   1.081       .  S
C929        N957   1.344       .  A
C932        C996   1.462       .  S
C932        N953   1.345       .  A
N933        N939   1.320       .  A
N934        C960   1.342       .  A
N934        N936   1.320       .  A
N934       Co950   2.088       .  S
N935        C949   1.343       .  A
N936        N964   1.322       .  A
N936       Co954   2.073       .  S
H937        C960   1.081       .  S
H938        C955   1.081       .  S
N940       Co954   2.087       .  S
N941        N953   1.320       .  A
N941        N957   1.320       .  A
N941       Co950   2.069       .  S
C942        C956   1.458       .  S
C942        C985   1.466       .  S
C942        N946   1.347       .  A
C943        C962   1.458       .  S
C943        H947   1.081       .  S
N944        C955   1.343       .  A
N944       Co954   2.083       .  S
C948        C960   1.456       .  S
C948        C969   1.462       .  S
C948        N964   1.346       .  A
Co950      Cl961   2.448       .  S
N951        C962   1.344       .  A
C952        C987   1.463       .  S
Co954      Cl961   2.451       .  S
C962        C967   1.459       .  S
C965        C970   1.402       .  A
C965       C1125   1.477       .  S
C966        C967   1.399       .  A
C966        H971   1.084       .  S
C968        C969   1.401       .  A
C968        H972   1.084       .  S
C969        C970   1.400       .  A
C970        H973   1.084       .  S
C974        C979   1.398       .  A
C974       C1152   1.476       .  S
C975        C976   1.397   1_655  A
C975        H980   1.084       .  S
C977        C978   1.404       .  A
C977        H981   1.084       .  S
C978        C979   1.400   1_455  A
C979        H982   1.085       .  S
C983        C988   1.403       .  A
C983       C1104   1.484       .  S
C984        C985   1.402       .  A
C984        H989   1.084       .  S
C986        C987   1.400       .  A
C986        H990   1.084       .  S
C987        C988   1.402       .  A
C988        H991   1.084       .  S
C992        C997   1.401       .  A
C992       C1197   1.479       .  S
C993        C994   1.396       .  A
C993        H998   1.084       .  S
C995        C996   1.402       .  A
C996        C997   1.402       .  A
C997       H1000   1.084       .  S
C1001      C1038   1.452       .  S
C1001      C1076   1.466       .  S
C1001      N1019   1.350       .  A
N1002      N1019   1.327       .  A
N1002      N1024   1.321       .  A
N1002     Co1039   2.096       .  S
C1003      C1041   1.460       .  S
C1003      H1048   1.081       .  S
C1003      N1028   1.346       .  A
H1004      C1045   1.081       .  S
C1005      C1009   1.452       .  S
C1005      H1034   1.081       .  S
C1005      N1029   1.337       .  A
Co1006     N1024   2.076       .  S
Co1006     N1014   2.069       .  S
Co1006     N1046   2.071       .  S
Co1006     N1022   2.069       .  S
Co1006    Cl1050   2.452       .  S
N1007      C1045   1.345       .  A
N1007      N1014   1.319       .  A
N1007     Co1008   2.092       .  S
Co1008     N1011   2.086       .  S
Co1008     N1028   2.092       .  S
Co1008     N1015   2.085       .  S
Co1008    Cl1050   2.452       .  S
C1009      C1065   1.461       .  S
C1009      N1047   1.348       .  A
N1010      N1017   1.321       .  A
N1010      N1040   1.322       .  A
N1010     Co1043   2.075       .  S
N1011      N1029   1.321       .  A
N1011      N1047   1.326       .  A
N1012      C1041   1.344       .  A
N1012      N1022   1.319       .  A
H1013      C1038   1.081       .  S
N1014      N1035   1.320       .  A
N1015      N1033   1.321       .  A
N1015      N1020   1.325       .  A
C1016      C1044   1.454       .  S
C1016      C1067   1.462       .  S
C1016      N1020   1.347       .  A
N1017      C1032   1.345       .  A
N1017     Co1039   2.095       .  S
C1018      C1021   1.450       .  S
C1018      H1052   1.081       .  S
C1018      N1046   1.337       .  A
C1021      C1074   1.466       .  S
C1021      N1042   1.352       .  A
N1022      N1028   1.320       .  A
N1023      C1049   1.345       .  A
N1023      N1025   1.321       .  A
N1023     Co1039   2.098       .  S
N1024      C1038   1.338       .  A
N1025      N1053   1.323       .  A
N1025     Co1043   2.080       .  S
H1026      C1049   1.081       .  S
H1027      C1044   1.081       .  S
N1029     Co1043   2.079       .  S
N1030      N1042   1.328       .  A
N1030      N1046   1.320       .  A
N1030     Co1039   2.098       .  S
C1031      C1045   1.461       .  S
C1031      C1056   1.464       .  S
C1031      N1035   1.345       .  A
C1032      C1051   1.460       .  S
C1032      H1036   1.081       .  S
N1033      C1044   1.339       .  A
N1033     Co1043   2.079       .  S
C1037      C1049   1.461       .  S
C1037      C1085   1.470       .  S
C1037      N1053   1.347       .  A
Co1039    Cl1050   2.451       .  S
N1040      C1051   1.345       .  A
C1041      C1058   1.463       .  S
Co1043    Cl1050   2.454       .  S
C1051      C1083   1.466       .  S
C1054      C1059   1.400   1_554  A
C1054      C1173   1.482   1_554  S
C1055      C1056   1.404       .  A
C1055      H1060   1.084       .  S
C1057      C1058   1.401   1_554  A
C1057      H1061   1.084       .  S
C1058      C1059   1.399       .  A
C1059      H1062   1.085       .  S
C1063      C1068   1.403   1_554  A
C1063      C1128   1.478       .  S
C1064      C1065   1.398       .  A
C1064      H1069   1.084       .  S
C1066      C1067   1.401       .  A
C1066      H1070   1.084       .  S
C1067      C1068   1.400       .  A
C1068      H1071   1.084       .  S
C1072      C1073   1.406   1_554  A
C1072      C1101   1.486       .  S
C1073      C1074   1.402       .  A
C1073      H1078   1.084       .  S
C1074      C1075   1.401   1_556  A
C1075      H1079   1.085       .  S
C1076      C1077   1.403       .  A
C1077      H1080   1.084       .  S
C1081      C1086   1.408   1_554  A
C1081      C1221   1.489       .  S
C1082      C1083   1.402       .  A
C1082      H1087   1.084       .  S
C1084      C1085   1.402       .  A
C1084      H1088   1.084       .  S
C1085      C1086   1.405       .  A
C1086      H1089   1.084       .  S
C1090      C1091   1.400       .  A
C1090      C1095   1.404       .  A
C1090      H1106   1.084       .  S
C1091      C1092   1.404       .  A
C1091      H1107   1.083       .  S
C1092      C1102   1.405       .  A
C1093      C1099   1.411   1_554  A
C1093      C1094   1.412       .  A
C1094      C1096   1.412   1_554  A
C1095      C1103   1.404       .  A
C1096      C1105   1.402       .  A
C1096      C1097   1.403       .  A
C1097      C1098   1.398       .  A
C1097      H1108   1.083       .  S
C1098      C1099   1.403       .  A
C1098      H1109   1.084       .  S
C1099      C1100   1.401       .  A
C1100      C1101   1.406   1_556  A
C1100      H1110   1.085       .  S
C1102      H1111   1.084       .  S
C1103      C1104   1.408       .  A
C1103      H1112   1.084       .  S
C1105      H1113   1.084       .  S
C1114      C1115   1.396       .  A
C1114      C1119   1.402       .  A
C1114      H1130   1.084       .  S
C1115      C1116   1.402       .  A
C1115      H1131   1.083       .  S
C1116      C1126   1.399       .  A
C1117      C1123   1.411   1_554  A
C1117      C1118   1.409       .  A
C1118      C1120   1.412   1_554  A
C1119      C1127   1.397       .  A
C1120      C1129   1.403       .  A
C1120      C1121   1.404       .  A
C1121      C1122   1.399       .  A
C1121      H1132   1.083       .  S
C1122      C1123   1.403       .  A
C1122      H1133   1.084       .  S
C1123      C1124   1.401       .  A
C1124      H1134   1.085       .  S
C1125      C1126   1.404       .  A
C1126      H1135   1.084       .  S
C1127      H1136   1.085       .  S
C1128      C1129   1.406   1_554  A
C1129      H1137   1.084       .  S
C1138      C1139   1.394       .  A
C1138      H1154   1.084       .  S
C1139      C1140   1.401       .  A
C1139      H1155   1.084       .  S
C1140      C1150   1.394       .  A
C1141      C1147   1.412   1_556  A
C1141      C1142   1.407   1_556  A
C1142      C1144   1.412       .  A
C1142      C1143   1.410   1_554  A
C1143      C1151   1.393       .  A
C1144      C1153   1.404       .  A
C1144      C1145   1.404       .  A
C1145      C1146   1.400       .  A
C1145      H1156   1.084       .  S
C1146      C1147   1.404       .  A
C1146      H1157   1.083       .  S
C1147      C1148   1.402       .  A
C1148      C1149   1.406   1_554  A
C1148      H1158   1.084       .  S
C1150      H1159   1.085       .  S
C1151      H1160   1.085       .  S
C1162      C1163   1.395       .  A
C1162      C1167   1.402       .  A
C1162      H1178   1.084       .  S
C1163      C1164   1.402       .  A
C1163      H1179   1.083       .  S
C1164      C1174   1.397       .  A
C1164      C1165   1.411       .  A
C1166      C1168   1.412       .  A
C1167      C1175   1.395       .  A
C1168      C1177   1.405       .  A
C1168      C1169   1.404       .  A
C1169      C1170   1.401       .  A
C1169      H1180   1.083       .  S
C1170      C1171   1.404       .  A
C1170      H1181   1.084       .  S
C1171      C1172   1.405       .  A
C1172      H1182   1.084       .  S
C1173      C1174   1.404       .  A
C1174      H1183   1.084       .  S
C1175      C1176   1.405       .  A
C1175      H1184   1.085       .  S
C1177      H1185   1.084       .  S
C1186      C1187   1.394       .  A
C1186      C1191   1.401       .  A
C1186      H1202   1.084       .  S
C1187      C1188   1.401       .  A
C1187      H1203   1.084       .  S
C1188      C1198   1.394       .  A
C1189      C1195   1.412       .  A
C1189      C1190   1.409       .  A
C1190      C1192   1.412       .  A
C1191      C1199   1.394       .  A
C1192      C1201   1.405       .  A
C1192      C1193   1.405       .  A
C1193      C1194   1.401       .  A
C1193      H1204   1.083       .  S
C1194      C1195   1.404       .  A
C1194      H1205   1.084       .  S
C1195      C1196   1.405       .  A
C1196      C1197   1.407       .  A
C1196      H1206   1.084       .  S
C1198      H1207   1.085       .  S
C1199      C1200   1.405       .  A
C1199      H1208   1.085       .  S
C1201      H1209   1.084       .  S
C1210      C1211   1.400       .  A
C1210      C1215   1.404       .  A
C1210      H1226   1.083       .  S
C1211      C1212   1.404       .  A
C1211      H1227   1.084       .  S
C1212      C1222   1.404       .  A
C1213      C1219   1.412   1_554  A
C1213      C1214   1.413       .  A
C1214      C1216   1.411   1_554  A
C1215      C1223   1.405       .  A
C1216      C1225   1.402       .  A
C1216      C1217   1.403       .  A
C1217      C1218   1.398       .  A
C1217      H1228   1.084       .  S
C1218      C1219   1.403       .  A
C1218      H1229   1.083       .  S
C1219      C1220   1.404       .  A
C1220      C1221   1.407   1_556  A
C1220      H1230   1.084       .  S
C1222      H1231   1.084       .  S
C1223      C1224   1.410       .  A
C1223      H1232   1.083       .  S
C1225      H1233   1.084       .  S
