geometry optimzed in LAMMPS
_audit_creation_date              2020-12-01 
_audit_creation_method            'lammps2cif' 
_symmetry_space_group_name_H-M    'P1' 
_symmetry_Int_Tables_number       1 
_symmetry_cell_setting            triclinic 
loop_ 
_symmetry_equiv_pos_as_xyz 
  x,y,z 
_cell_length_a                    40.67663401 
_cell_length_b                    40.35874166334136 
_cell_length_c                    47.58920350294816 
_cell_angle_alpha                 90.76165084523193 
_cell_angle_beta                  89.20297690402964 
_cell_angle_gamma                 120.84622554050209 
loop_ 
_atom_site_label 
_atom_site_type_symbol 
_atom_site_fract_x 
_atom_site_fract_y 
_atom_site_fract_z 
_atom_site_charge 
Fe1        Fe  0.19000757  0.29579291  0.24583136     1.65800
Fe2        Fe  0.19695590  0.38371036  0.24974674     1.73200
Fe3        Fe  0.10988114  0.30045201  0.25455989     1.54400
O4          O  0.10035871  0.25834425  0.22505401    -0.81100
O5          O  0.17031904  0.39027832  0.28520925    -0.79400
O6          O  0.15667371  0.26662165  0.21150415    -0.83600
O7          O  0.15168560  0.25173732  0.27169565    -0.78500
O8          O  0.10516309  0.33208061  0.22293354    -0.80300
O9          O  0.23817617  0.38404390  0.27556281    -0.83000
C10         C  0.12321869  0.24475816  0.28708390     0.97800
C11         C  0.12050335  0.25005941  0.20912914     1.05200
O12         O  0.16569124  0.32689641  0.25013901    -1.12000
O13         O  0.22825965  0.38571402  0.21420368    -0.74400
O14         O  0.23267068  0.33363554  0.21935710    -0.77900
O15         O  0.10833027  0.26572065  0.28687860    -0.78600
C16         C  0.24376751  0.36603974  0.20826447     0.96700
O17         O  0.22544047  0.32332379  0.27959049    -0.76600
O18         O  0.15913648  0.38928076  0.22380907    -0.81800
C19         C  0.13596103  0.37175650  0.29416933     0.99300
C20         C  0.12519764  0.36686140  0.21495932     1.05200
O21         O  0.11160450  0.33895012  0.28420416    -0.77400
C22         C  0.24503718  0.35911659  0.28579243     1.03500
C23         C  0.00171572  0.99479389  0.10889556    -0.01900
C24         C  0.99598084  0.99027707  0.39219469    -0.01900
Fe25       Fe  0.30814278  0.20159004  0.74946157     1.65800
Fe26       Fe  0.30665842  0.11594511  0.75201995     1.73200
Fe27       Fe  0.39209182  0.20087029  0.75013040     1.54400
O28         O  0.39761552  0.23943146  0.71958318    -0.81100
O29         O  0.33778641  0.11388684  0.78497116    -0.79400
O30         O  0.34272533  0.23856561  0.71789905    -0.83600
O31         O  0.34252368  0.24076084  0.77997559    -0.78500
O32         O  0.39476246  0.16640807  0.71862523    -0.80300
O33         O  0.26793666  0.11349553  0.78086821    -0.83000
C34         C  0.37542768  0.25194510  0.79001464     0.97800
C35         C  0.37709276  0.25178662  0.70973549     1.05200
O36         O  0.33560034  0.17287260  0.75047862    -1.12000
O37         O  0.27157483  0.11104588  0.71958174    -0.74400
O38         O  0.27037383  0.16553758  0.71893533    -0.77900
O39         O  0.39602571  0.23852408  0.78139739    -0.78600
C40         C  0.25879504  0.13142594  0.71006029     0.96700
O41         O  0.26931457  0.16919347  0.78092149    -0.76600
O42         O  0.34102028  0.10961769  0.72314741    -0.81800
C43         C  0.37208752  0.13501845  0.79292519     0.99300
C44         C  0.37352224  0.13107119  0.71195087     1.05200
O45         O  0.39495547  0.16693967  0.78116146    -0.77400
C46         C  0.25558603  0.13487768  0.78948637     1.03500
C47         C  0.99866645  0.01033936  0.88996815    -0.01900
C48         C  0.00574048  0.01369808  0.60916811    -0.01900
C49         C  0.44957924  0.33721742  0.83230668    -0.01500
C50         C  0.42760749  0.35108228  0.84521678     0.07100
C51         C  0.38766132  0.32972946  0.84284022    -0.07400
C52         C  0.36954586  0.29610078  0.82627829     0.04600
C53         C  0.39178724  0.28351926  0.81151083    -0.14700
C54         C  0.43168496  0.30373468  0.81575580    -0.08000
C55         C  0.44611788  0.39057072  0.85728296     0.05500
C56         C  0.46120900  0.42137346  0.83867871    -0.09100
C57         C  0.47835468  0.45950408  0.84822690     0.00500
C58         C  0.48035817  0.46819321  0.87769571     0.00400
C59         C  0.46621101  0.43616244  0.89619449    -0.12700
C60         C  0.44892862  0.39799657  0.88625692     0.00800
C61         C  0.49221316  0.48819803  0.82642930     0.40100
C62         C  0.43500041  0.36688296  0.90618667     0.36800
C63         C  0.49074069  0.35777033  0.83494896     0.36500
C64         C  0.32829078  0.27573048  0.82460985     0.37200
N65         N  0.00221222  0.50920809  0.80769766    -0.43500
N66         N  0.42392139  0.34197097  0.92217699    -0.43600
N67         N  0.29522124  0.25947629  0.82335237    -0.41400
N68         N  0.02372228  0.37423619  0.83714234    -0.42800
H69         H  0.44940344  0.29452167  0.80507805     0.13400
H70         H  0.37073726  0.34035885  0.85293456     0.09900
H71         H  0.45927339  0.41540778  0.81624922     0.10900
H72         H  0.46862040  0.44000448  0.91869416     0.16700
C73         C  0.18473954  0.12639027  0.84591474    -0.01500
C74         C  0.15646342  0.08680224  0.84402829     0.07100
C75         C  0.16194196  0.06314956  0.82516733    -0.07400
C76         C  0.19433412  0.07802873  0.80795522     0.04600
C77         C  0.22244911  0.11788013  0.80920501    -0.14700
C78         C  0.21734851  0.14162144  0.82847220    -0.08000
C79         C  0.11850413  0.06998447  0.85821167     0.05500
C80         C  0.09532907  0.08486270  0.85157076    -0.09100
C81         C  0.05678296  0.06637601  0.85976595     0.00500
C82         C  0.04050630  0.03263952  0.87713862     0.00400
C83         C  0.06389963  0.01651267  0.88150123    -0.12700
C84         C  0.10245491  0.03535357  0.87334376     0.00800
C85         C  0.03507200  0.07990595  0.84526743     0.40100
C86         C  0.12521769  0.01886709  0.88115487     0.36800
C87         C  0.18081205  0.15188074  0.86542121     0.36500
C88         C  0.19621723  0.05181796  0.78791122     0.37200
N89         N  0.01861481  0.09059888  0.83216788    -0.43500
N90         N  0.14358611  0.00582466  0.88746301    -0.44000
N91         N  0.19752441  0.03065853  0.77192355    -0.41400
N92         N  0.17776249  0.17239328  0.88103834    -0.42800
H93         H  0.23866477  0.17212756  0.82974623     0.13400
H94         H  0.13978455  0.03301732  0.82291582     0.09900
H95         H  0.10682466  0.10975050  0.83786867     0.10900
H96         H  0.05232197  0.98961272  0.89287113     0.16700
C97         C  0.42352941  0.02892005  0.85498382    -0.01500
C98         C  0.43504525  0.06675989  0.86399927     0.07100
C99         C  0.46397462  0.08425780  0.88418363    -0.07400
C100        C  0.48415988  0.06662423  0.89304244     0.04600
C101        C  0.47505087  0.02971698  0.88209753    -0.14700
C102        C  0.44240941  0.01059847  0.86469442    -0.08000
C103        C  0.41907440  0.08899306  0.85088446     0.05500
C104        C  0.37920010  0.07272882  0.84965622    -0.09100
C105        C  0.36294340  0.08838323  0.83239188     0.00500
C106        C  0.38689496  0.12115074  0.81571862     0.00400
C107        C  0.42670729  0.13977188  0.81954941    -0.12700
C108        C  0.44285328  0.12434912  0.83700741     0.00800
C109        C  0.32171006  0.06992120  0.83226191     0.40100
C110        C  0.48402018  0.14512731  0.83937576     0.36800
C111        C  0.39344975  0.00845316  0.83465569     0.36500
C112        C  0.51580897  0.08857036  0.91187654     0.37200
N113        N  0.28867214  0.05517555  0.83234267    -0.43500
N114        N  0.01707280  0.16265259  0.84147739    -0.44000
N115        N  0.54115579  0.10639059  0.92692122    -0.41400
N116        N  0.36934026  0.99181991  0.81844693    -0.42800
H117        H  0.43103160  0.98109347  0.85803731     0.13400
H118        H  0.47209176  0.11273761  0.89213134     0.09900
H119        H  0.36061342  0.04673967  0.86143431     0.10900
H120        H  0.44568749  0.16577379  0.80792746     0.16700
C121        C  0.38738350  0.33245012  0.66285705    -0.01500
C122        C  0.42740560  0.35493740  0.65858331     0.07100
C123        C  0.45024612  0.34078090  0.66835131    -0.07400
C124        C  0.43431586  0.30581918  0.68291964     0.04600
C125        C  0.39450655  0.28472383  0.68936210    -0.14700
C126        C  0.37144792  0.29809656  0.67828577    -0.08000
C127        C  0.44626762  0.39430822  0.64577382     0.05500
C128        C  0.43960833  0.42220652  0.65779327    -0.09100
C129        C  0.45783664  0.46017980  0.64772239     0.00500
C130        C  0.48303826  0.47124522  0.62374929     0.00400
C131        C  0.49208721  0.44353771  0.61384873    -0.12700
C132        C  0.47318337  0.40549944  0.62367220     0.00800
C133        C  0.45261304  0.48681090  0.66506341     0.40100
C134        C  0.48113442  0.37818542  0.61000249     0.36800
C135        C  0.36199134  0.34395203  0.65154512     0.36500
C136        C  0.46007612  0.29308085  0.69115967     0.37200
N137        N  0.44820611  0.50740179  0.67967765    -0.43500
N138        N  0.48743401  0.35624971  0.59902412    -0.44000
N139        N  0.48087327  0.28291057  0.69743245    -0.41400
N140        N  0.34162502  0.35309289  0.64240230    -0.42800
H141        H  0.34081580  0.28216343  0.68217020     0.13400
H142        H  0.48101563  0.35766610  0.66520903     0.09900
H143        H  0.42094124  0.41454551  0.67609044     0.10900
H144        H  0.51306905  0.45119751  0.59716945     0.16700
C145        C  0.08979607  0.05462020  0.66108763    -0.01500
C146        C  0.12172947  0.06417382  0.64395073     0.07100
C147        C  0.11633585  0.05374936  0.61557565    -0.07400
C148        C  0.07974202  0.03586901  0.60361914     0.04600
C149        C  0.04757869  0.03070561  0.61994842    -0.14700
C150        C  0.05338502  0.03715952  0.64927702    -0.08000
C151        C  0.16044250  0.08223598  0.65615682     0.05500
C152        C  0.17219910  0.05829267  0.66756733    -0.09100
C153        C  0.20542777  0.07363220  0.68369313     0.00500
C154        C  0.22751511  0.11406985  0.68889225     0.00400
C155        C  0.21677786  0.13806650  0.67562870    -0.12700
C156        C  0.18361362  0.12249494  0.65937006     0.00800
C157        C  0.21451554  0.04658051  0.69561491     0.40100
C158        C  0.17330454  0.14830985  0.64693886     0.36800
C159        C  0.09387479  0.06347752  0.69080765     0.36500
C160        C  0.07667116  0.01948850  0.57595867     0.37200
N161        N  0.22162103  0.02470506  0.70503377    -0.43500
N162        N  0.16546707  0.16929981  0.63691212    -0.44000
N163        N  0.07486256  0.00610206  0.55395697    -0.41400
N164        N  0.09729013  0.07078355  0.71457638    -0.42800
H165        H  0.02951935  0.03088008  0.66299427     0.13400
H166        H  0.14075937  0.05846737  0.60293366     0.09900
H167        H  0.15435067  0.02726548  0.66486401     0.10900
H168        H  0.23354223  0.16907560  0.67872953     0.16700
C169        C  0.42797024  0.12295034  0.64969275    -0.01500
C170        C  0.42044359  0.08489091  0.65224706     0.07100
C171        C  0.39501981  0.06107978  0.67319568    -0.07400
C172        C  0.37847921  0.07505354  0.69230393     0.04600
C173        C  0.38749010  0.11388359  0.69066337    -0.14700
C174        C  0.41167781  0.13716116  0.66889333    -0.08000
C175        C  0.44298737  0.07108292  0.63651831     0.05500
C176        C  0.48242423  0.09029146  0.64080418    -0.09100
C177        C  0.50467135  0.07517967  0.63096177     0.00500
C178        C  0.48677667  0.03793419  0.61753506     0.00400
C179        C  0.44745426  0.02120778  0.61077865    -0.12700
C180        C  0.42571970  0.03716120  0.62021293     0.00800
C181        C  0.54524771  0.10045984  0.63485522     0.40100
C182        C  0.38558017  0.01787826  0.61335937     0.36800
C183        C  0.45258935  0.14800211  0.62768514     0.36500
C184        C  0.35462183  0.04955392  0.71446648     0.37200
N185        N  0.07747106  0.12200420  0.63843132    -0.43500
N186        N  0.35343629  0.00258640  0.60776934    -0.44000
N187        N  0.33557174  0.02900886  0.73217741    -0.41400
N188        N  0.97224830  0.16805257  0.61000444    -0.42800
H189        H  0.41826666  0.16671944  0.66707078     0.13400
H190        H  0.38960742  0.03198434  0.67553524     0.09900
H191        H  0.49590978  0.11712012  0.65274125     0.10900
H192        H  0.43293711  0.99402828  0.59939598     0.16700
C193        C  0.47577066  0.47240731  0.53326610    -0.01500
C194        C  0.99794795  0.50532190  0.51665253     0.07100
C195        C  0.01965014  0.04163694  0.52941155    -0.07400
C196        C  0.02271863  0.04490311  0.55876693     0.04600
C197        C  0.00254392  0.01153836  0.57617225    -0.14700
C198        C  0.47656565  0.47560352  0.56260930    -0.08000
C199        C  0.99780017  0.50323819  0.48526938     0.05500
C200        C  0.46290739  0.48670424  0.47116897    -0.09100
C201        C  0.46066618  0.48198752  0.44186289     0.00500
C202        C  0.99330874  0.99395048  0.42488068     0.00400
C203        C  0.02867477  0.01385982  0.43931826    -0.12700
C204        C  0.03071594  0.01760156  0.46862173     0.00800
C205        C  0.42280300  0.46705474  0.43070031     0.40100
C206        C  0.06866351  0.53401440  0.48246133     0.36800
C207        C  0.45288677  0.43455136  0.52077013     0.36500
C208        C  0.04903229  0.08300487  0.56946064     0.37200
N209        N  0.39189982  0.45537029  0.42289054    -0.43500
N210        N  0.09826777  0.54691741  0.49299259    -0.44000
N211        N  0.07120656  0.11434145  0.57603116    -0.41400
N212        N  0.43476352  0.40423459  0.51070680    -0.42800
H213        H  0.45655039  0.45008331  0.57408824     0.13400
H214        H  0.03552805  0.06727214  0.51663595     0.09900
H215        H  0.43690254  0.47752529  0.48334213     0.10900
H216        H  0.05522081  0.02458573  0.42759023     0.16700
C217        C  0.46889750  0.47402651  0.02981774    -0.01500
C218        C  0.50099595  0.50220714  0.01455046     0.07100
C219        C  0.03182285  0.02726016  0.03086555    -0.07400
C220        C  0.03449870  0.02256767  0.05969352     0.04600
C221        C  0.00143660  0.99611046  0.07572304    -0.14700
C222        C  0.46951085  0.47378180  0.05929349    -0.08000
C223        C  0.50145030  0.50573938  0.98292682     0.05500
C224        C  0.46691286  0.99788268  0.96937643    -0.09100
C225        C  0.46527017  0.99693366  0.93990927     0.00500
C226        C  0.99916105  0.00981822  0.92325738     0.00400
C227        C  0.03466366  0.52215441  0.93761591    -0.12700
C228        C  0.03439483  0.51572924  0.96646055     0.00800
C229        C  0.42769984  0.98141572  0.92790974     0.40100
C230        C  0.06790361  0.51720571  0.97785696     0.36800
C231        C  0.43521358  0.44365450  0.01607525     0.36500
C232        C  0.07249528  0.04481463  0.07123777     0.37200
N233        N  0.39723163  0.96857300  0.91887606    -0.43500
N234        N  0.09464582  0.51811558  0.98685973    -0.44000
N235        N  0.10370898  0.06291959  0.07906287    -0.41400
N236        N  0.40826047  0.41919597  0.00513739    -0.42800
H237        H  0.44258520  0.45479025  0.06937401     0.13400
H238        H  0.05622695  0.05086185  0.02037227     0.09900
H239        H  0.44156052  0.99199106  0.98111616     0.10900
H240        H  0.06220864  0.53501367  0.92754951     0.16700
C241        C  0.04967276  0.45677796  0.34203120    -0.01500
C242        C  0.06437533  0.43970839  0.35939407     0.07100
C243        C  0.05549459  0.43615592  0.38807917    -0.07400
C244        C  0.03321981  0.45035502  0.40001495     0.04600
C245        C  0.01977542  0.46998746  0.38287210    -0.14700
C246        C  0.02713953  0.47059561  0.35354564    -0.08000
C247        C  0.08544023  0.42166853  0.34722657     0.05500
C248        C  0.12357427  0.44492981  0.33822354    -0.09100
C249        C  0.14216143  0.42914309  0.32282711     0.00500
C250        C  0.12205365  0.38923550  0.31575660     0.00400
C251        C  0.08478486  0.36586027  0.32681463    -0.12700
C252        C  0.06650742  0.38166565  0.34221728     0.00800
C253        C  0.18115832  0.45502326  0.31381275     0.40100
C254        C  0.02729975  0.35656530  0.35112010     0.36800
C255        C  0.05721110  0.46028311  0.31213751     0.36500
C256        C  0.02331432  0.44097804  0.42923333     0.37200
N257        N  0.21249149  0.47590711  0.30680876    -0.43500
N258        N  0.99584971  0.33655904  0.35822632    -0.44000
N259        N  0.01584193  0.43258093  0.45262133    -0.41400
N260        N  0.06342932  0.46320164  0.28821326    -0.42800
H261        H  0.01659843  0.48388131  0.33945268     0.13400
H262        H  0.06541342  0.42125993  0.40117343     0.09900
H263        H  0.13837816  0.47572928  0.34239936     0.10900
H264        H  0.06888715  0.33514614  0.32230601     0.16700
C265        C  0.32270028  0.42238103  0.33765784    -0.01500
C266        C  0.34758412  0.40770278  0.33557025     0.07100
C267        C  0.33658823  0.37449642  0.31926818    -0.07400
C268        C  0.30251510  0.35716030  0.30386992     0.04600
C269        C  0.27849114  0.37306149  0.30472568    -0.14700
C270        C  0.28878150  0.40531488  0.32210634    -0.08000
C271        C  0.38619670  0.42793804  0.34871492     0.05500
C272        C  0.39576637  0.40883875  0.36838133    -0.09100
C273        C  0.43138044  0.42774936  0.38200249     0.00500
C274        C  0.45827868  0.46769044  0.37689846     0.00400
C275        C  0.44973139  0.48430711  0.35409794    -0.12700
C276        C  0.41424565  0.46550273  0.34076117     0.00800
C277        C  0.43771102  0.40534224  0.40223546     0.40100
C278        C  0.40777219  0.48516773  0.31827848     0.36800
C279        C  0.33156313  0.45515589  0.35545147     0.36500
C280        C  0.29454867  0.32486263  0.28583051     0.37200
N281        N  0.44073074  0.38587047  0.41835275    -0.43500
N282        N  0.40268203  0.00014171  0.29845603    -0.44000
N283        N  0.28826324  0.29904374  0.27133742    -0.41400
N284        N  0.33878088  0.48149596  0.36965200    -0.42800
H285        H  0.27052659  0.41761036  0.32323462     0.13400
H286        H  0.35554787  0.36305511  0.31760312     0.09900
H287        H  0.37489659  0.37914514  0.37359730     0.10900
H288        H  0.46973389  0.01166615  0.34520776     0.16700
C289        C  0.08464886  0.18002089  0.35094903    -0.01500
C290        C  0.07614665  0.14397913  0.33955826     0.07100
C291        C  0.08248228  0.14132549  0.31077665    -0.07400
C292        C  0.09769894  0.17378945  0.29351828     0.04600
C293        C  0.10629800  0.20990398  0.30489174    -0.14700
C294        C  0.09916951  0.21249918  0.33353511    -0.08000
C295        C  0.05937862  0.10823294  0.35679430     0.05500
C296        C  0.02438238  0.09526147  0.37065688    -0.09100
C297        C  0.00524315  0.05939082  0.38412710     0.00500
C298        C  0.01976109  0.03376465  0.38226515     0.00400
C299        C  0.05773517  0.05000411  0.37166988    -0.12700
C300        C  0.07686643  0.08598622  0.35849017     0.00800
C301        C  0.46970157  0.04964840  0.39790040     0.40100
C302        C  0.11462607  0.09950597  0.34689563     0.36800
C303        C  0.08008929  0.18463129  0.38060429     0.36500
C304        C  0.10315574  0.16889398  0.26400632     0.37200
N305        N  0.44150833  0.04400459  0.40845668    -0.43500
N306        N  0.14484101  0.11023783  0.33757099    -0.44000
N307        N  0.10751991  0.16472220  0.24042324    -0.41400
N308        N  0.07647647  0.18815016  0.40442148    -0.42800
H309        H  0.10592084  0.24013330  0.34245577     0.13400
H310        H  0.07529209  0.11362231  0.30170948     0.09900
H311        H  0.01124450  0.11282049  0.37021000     0.10900
H312        H  0.07308981  0.03479668  0.37327913     0.16700
C313        C  0.11590690  0.43647425  0.16708622    -0.01500
C314        C  0.07622942  0.41697623  0.16201981     0.07100
C315        C  0.05286586  0.37982155  0.17274696    -0.07400
C316        C  0.06805910  0.36234676  0.18916579     0.04600
C317        C  0.10788394  0.38232847  0.19526689    -0.14700
C318        C  0.13132745  0.41918101  0.18352875    -0.08000
C319        C  0.05785857  0.43589018  0.14777844     0.05500
C320        C  0.05873130  0.43829561  0.11845649    -0.09100
C321        C  0.04123728  0.45565596  0.10435523     0.00500
C322        C  0.02338685  0.47290700  0.12003210     0.00400
C323        C  0.02139526  0.46818494  0.14967732    -0.12700
C324        C  0.03828336  0.45028532  0.16336480     0.00800
C325        C  0.04088608  0.45248943  0.07413199     0.40100
C326        C  0.03625982  0.44819186  0.19366691     0.36800
C327        C  0.14130843  0.47477135  0.15645462     0.36500
C328        C  0.04139921  0.32458403  0.20022840     0.37200
N329        N  0.04080064  0.44886627  0.04995149    -0.43500
N330        N  0.03471834  0.44652026  0.21794411    -0.44000
N331        N  0.01989806  0.29434442  0.20905813    -0.41400
N332        N  0.16215930  0.50544079  0.14804482    -0.42800
H333        H  0.16182018  0.43504541  0.18763344     0.13400
H334        H  0.02229485  0.36482432  0.16891228     0.09900
H335        H  0.07263476  0.42577621  0.10645739     0.10900
H336        H  0.00772082  0.48015815  0.16252909     0.16700
C337        C  0.41261494  0.47439006  0.15126130    -0.01500
C338        C  0.38682118  0.43524315  0.14578637     0.07100
C339        C  0.39919535  0.41445200  0.12957242    -0.07400
C340        C  0.43633018  0.43237598  0.11799784     0.04600
C341        C  0.46213238  0.47313992  0.12117727    -0.14700
C342        C  0.44958635  0.49239073  0.13985985    -0.08000
C343        C  0.34852786  0.41482909  0.15969605     0.05500
C344        C  0.32078551  0.42427520  0.15286336    -0.09100
C345        C  0.28587793  0.40827789  0.16774966     0.00500
C346        C  0.27822619  0.38197717  0.18971724     0.00400
C347        C  0.30580383  0.37196352  0.19585811    -0.12700
C348        C  0.34069575  0.38833167  0.18137393     0.00800
C349        C  0.25849231  0.41906950  0.15990956     0.40100
C350        C  0.36902915  0.37938957  0.19040800     0.36800
C351        C  0.40251692  0.49637928  0.16995834     0.36500
C352        C  0.44678190  0.40744374  0.10336673     0.37200
N353        N  0.23657231  0.42774899  0.15355926    -0.43500
N354        N  0.39182507  0.37243479  0.19775169    -0.44000
N355        N  0.45432837  0.38677484  0.09178624    -0.41400
N356        N  0.39445307  0.51398730  0.18492770    -0.42800
H357        H  0.46861288  0.52135219  0.14726973     0.13400
H358        H  0.37990046  0.38370753  0.12647767     0.09900
H359        H  0.32680919  0.44481228  0.13624669     0.10900
H360        H  0.30088547  0.35245388  0.21300913     0.16700
C361        C  0.02288442  0.09940059  0.11921556    -0.01500
C362        C  0.05454919  0.11637338  0.13715374     0.07100
C363        C  0.07219237  0.09580503  0.14407744    -0.07400
C364        C  0.05810380  0.05801611  0.13466639     0.04600
C365        C  0.02357292  0.03851366  0.11851624    -0.14700
C366        C  0.00853348  0.06153996  0.10944914    -0.08000
C367        C  0.06873191  0.15436094  0.15098780     0.05500
C368        C  0.04670257  0.15679461  0.17284452    -0.09100
C369        C  0.06231220  0.18834042  0.19135372     0.00500
C370        C  0.10087309  0.21873028  0.18784444     0.00400
C371        C  0.12202975  0.21719540  0.16474347    -0.12700
C372        C  0.10635741  0.18531158  0.14647921     0.00800
C373        C  0.03899449  0.18654548  0.21513616     0.40100
C374        C  0.12982725  0.18414910  0.12389107     0.36800
C375        C  0.00427155  0.12002626  0.11102241     0.36500
C376        C  0.08305598  0.04338049  0.14015177     0.37200
N377        N  0.02028642  0.18480854  0.23425550    -0.43500
N378        N  0.14857683  0.18309544  0.10579367    -0.44000
N379        N  0.10434257  0.03320445  0.14464827    -0.41400
N380        N  0.98930082  0.13656096  0.10453140    -0.42800
H381        H  0.98366050  0.04881989  0.09595331     0.13400
H382        H  0.09749066  0.10963320  0.15720668     0.09900
H383        H  0.01802128  0.13260914  0.17665769     0.10900
H384        H  0.15138123  0.24029975  0.16149091     0.16700
Fe385      Fe  0.18816713  0.79546635  0.24632269     1.65800
Fe386      Fe  0.19485514  0.88306317  0.24973396     1.73200
Fe387      Fe  0.10786247  0.79987388  0.25477602     1.54400
O388        O  0.09855231  0.75755663  0.22533692    -0.81100
O389        O  0.16881700  0.88959878  0.28543613    -0.79400
O390        O  0.15518575  0.76649136  0.21195328    -0.83600
O391        O  0.14974976  0.75137193  0.27205091    -0.78500
O392        O  0.10286426  0.83115275  0.22304330    -0.80300
O393        O  0.23666622  0.88376404  0.27503371    -0.83000
C394        C  0.12138656  0.74456085  0.28748705     0.97800
C395        C  0.11903416  0.74967000  0.20940837     1.05200
O396        O  0.16366174  0.82636383  0.25038853    -1.12000
O397        O  0.22523034  0.88453604  0.21384453    -0.74400
O398        O  0.23092686  0.83338900  0.21995946    -0.77900
O399        O  0.10654791  0.76555403  0.28726039    -0.78600
C400        C  0.24131088  0.86530129  0.20831247     0.96700
O401        O  0.22326297  0.82299077  0.28016502    -0.76600
O402        O  0.15654903  0.88852258  0.22438650    -0.81800
C403        C  0.13436994  0.87146116  0.29421905     0.99300
C404        C  0.12267421  0.86610818  0.21545180     1.05200
O405        O  0.10965757  0.83874829  0.28426499    -0.77400
C406        C  0.24332622  0.85894061  0.28569425     1.03500
C407        C  0.00420845  0.49497201  0.10807449    -0.01900
C408        C  0.99768939  0.49099236  0.39261488    -0.01900
Fe409      Fe  0.30938028  0.70204959  0.74866157     1.65800
Fe410      Fe  0.30742107  0.61677554  0.75176034     1.73200
Fe411      Fe  0.39286809  0.70143730  0.74816291     1.54400
O412        O  0.39674399  0.73477516  0.71422530    -0.81100
O413        O  0.34375163  0.61418476  0.78030104    -0.79400
O414        O  0.34769649  0.74365588  0.72071803    -0.83600
O415        O  0.34015353  0.73643473  0.78227326    -0.78500
O416        O  0.39464088  0.66255718  0.72013109    -0.80300
O417        O  0.27546493  0.61664646  0.78522034    -0.83000
C418        C  0.37543743  0.75255357  0.78835811     0.97800
C419        C  0.37925203  0.75239541  0.70874966     1.05200
O420        O  0.33662976  0.67343885  0.74942211    -1.12000
O421        O  0.26653839  0.61148978  0.72377980    -0.74400
O422        O  0.27640772  0.66990136  0.71492422    -0.77900
O423        O  0.39776511  0.74356267  0.77599433    -0.78600
C424        C  0.25910098  0.63371872  0.71020329     0.96700
O425        O  0.26642365  0.66537990  0.77661711    -0.76600
O426        O  0.33627632  0.61008615  0.71863094    -0.81800
C427        C  0.37592314  0.63782503  0.79098719     0.99300
C428        C  0.37080331  0.62928998  0.71040805     1.05200
O429        O  0.39636230  0.67218662  0.78224408    -0.77400
C430        C  0.25788868  0.63453764  0.78947120     1.03500
C431        C  0.99985749  0.51097011  0.88924769    -0.01900
C432        C  0.00483311  0.51250441  0.60979977    -0.01900
C433        C  0.45041187  0.83844102  0.82988600    -0.01500
C434        C  0.42853306  0.85173156  0.84371635     0.07100
C435        C  0.38853327  0.82999220  0.84202873    -0.07400
C436        C  0.37016588  0.79649097  0.82534959     0.04600
C437        C  0.39221996  0.78435699  0.80974588    -0.14700
C438        C  0.43229684  0.80508517  0.81322504    -0.08000
C439        C  0.44699756  0.89092936  0.85631670     0.05500
C440        C  0.46231993  0.92224293  0.83816521    -0.09100
C441        C  0.47890363  0.96008218  0.84826081     0.00500
C442        C  0.48017413  0.96792730  0.87783679     0.00400
C443        C  0.46603815  0.93544497  0.89587478    -0.12700
C444        C  0.44916959  0.89756560  0.88539058     0.00800
C445        C  0.49291614  0.98936800  0.82689152     0.40100
C446        C  0.43487901  0.86589831  0.90486182     0.36800
C447        C  0.49165964  0.85932067  0.83183667     0.36500
C448        C  0.32886756  0.77612054  0.82427296     0.37200
N449        N  0.00306621  0.01090352  0.80846171    -0.43500
N450        N  0.42345657  0.84050040  0.92045109    -0.43600
N451        N  0.29576551  0.75990011  0.82349475    -0.41400
N452        N  0.02472197  0.87606223  0.83345268    -0.42800
H453        H  0.44996505  0.79622344  0.80204759     0.13400
H454        H  0.37169771  0.84023818  0.85278547     0.09900
H455        H  0.46085424  0.91690742  0.81565890     0.10900
H456        H  0.46799451  0.93871429  0.91842486     0.16700
C457        C  0.18525471  0.62436977  0.84468104    -0.01500
C458        C  0.15766403  0.58453005  0.84268216     0.07100
C459        C  0.16459962  0.56126067  0.82438101    -0.07400
C460        C  0.19769565  0.57692388  0.80777527     0.04600
C461        C  0.22457802  0.61702710  0.80885530    -0.14700
C462        C  0.21817112  0.64035900  0.82755367    -0.08000
C463        C  0.11914554  0.56737857  0.85617133     0.05500
C464        C  0.09639863  0.58270032  0.84937337    -0.09100
C465        C  0.05809961  0.56526617  0.85803111     0.00500
C466        C  0.04155576  0.53211611  0.87601328     0.00400
C467        C  0.06432096  0.51525241  0.88038328    -0.12700
C468        C  0.10266639  0.53300313  0.87166024     0.00800
C469        C  0.03680793  0.57921823  0.84346744     0.40100
C470        C  0.12478624  0.51581405  0.87946926     0.36800
C471        C  0.18036125  0.64933542  0.86410190     0.36500
C472        C  0.20187431  0.55144161  0.78836389     0.37200
N473        N  0.02070648  0.59022381  0.83027117    -0.43500
N474        N  0.14260369  0.50215399  0.88576763    -0.44000
N475        N  0.20525329  0.53105876  0.77282470    -0.41400
N476        N  0.17651990  0.66934997  0.87971748    -0.42800
H477        H  0.23881111  0.67106784  0.82870584     0.13400
H478        H  0.14317261  0.53090084  0.82208071     0.09900
H479        H  0.10810854  0.60732343  0.83539730     0.10900
H480        H  0.05243699  0.48860328  0.89210152     0.16700
C481        C  0.42603361  0.53103623  0.85369291    -0.01500
C482        C  0.43860326  0.56936884  0.86202650     0.07100
C483        C  0.46777974  0.58686036  0.88203581    -0.07400
C484        C  0.48708054  0.56852919  0.89143139     0.04600
C485        C  0.47696232  0.53105732  0.88108038    -0.14700
C486        C  0.44408759  0.51213471  0.86389489    -0.08000
C487        C  0.42306986  0.59182903  0.84862588     0.05500
C488        C  0.38325600  0.57622570  0.84787133    -0.09100
C489        C  0.36713610  0.59193849  0.83055646     0.00500
C490        C  0.39110691  0.62414194  0.81349744     0.00400
C491        C  0.43094044  0.64218464  0.81667457    -0.12700
C492        C  0.44702397  0.62662667  0.83410758     0.00800
C493        C  0.32599522  0.57444548  0.83086729     0.40100
C494        C  0.48823028  0.64661385  0.83579147     0.36800
C495        C  0.39566660  0.51057397  0.83357138     0.36500
C496        C  0.51877414  0.59020024  0.91027737     0.37200
N497        N  0.29304662  0.56054100  0.83125381    -0.43500
N498        N  0.02130023  0.66350711  0.83730312    -0.44000
N499        N  0.54409350  0.60778160  0.92539333    -0.41400
N500        N  0.37132991  0.49394887  0.81752548    -0.42800
H501        H  0.43187454  0.48231082  0.85779621     0.13400
H502        H  0.47668455  0.61574972  0.88948877     0.09900
H503        H  0.36458254  0.55071277  0.86008179     0.10900
H504        H  0.44982267  0.66764302  0.80448312     0.16700
C505        C  0.38994236  0.83383812  0.66270409    -0.01500
C506        C  0.42997776  0.85634612  0.65846078     0.07100
C507        C  0.45281153  0.84215575  0.66825803    -0.07400
C508        C  0.43679350  0.80711344  0.68280672     0.04600
C509        C  0.39691645  0.78583124  0.68888341    -0.14700
C510        C  0.37394197  0.79935344  0.67796429    -0.08000
C511        C  0.44872064  0.89577571  0.64568824     0.05500
C512        C  0.44179809  0.92352390  0.65768018    -0.09100
C513        C  0.45932046  0.96133405  0.64733209     0.00500
C514        C  0.48420351  0.97244863  0.62318213     0.00400
C515        C  0.49352355  0.94492288  0.61325092    -0.12700
C516        C  0.47528843  0.90702302  0.62334987     0.00800
C517        C  0.45368524  0.98780395  0.66452655     0.40100
C518        C  0.48348932  0.87988639  0.60968060     0.36800
C519        C  0.36458712  0.84546186  0.65151434     0.36500
C520        C  0.46255011  0.79483605  0.69199404     0.37200
N521        N  0.44895284  0.00827611  0.67902821    -0.43500
N522        N  0.48998930  0.85811531  0.59866164    -0.44000
N523        N  0.48333143  0.78502768  0.69908131    -0.41400
N524        N  0.34429422  0.85476944  0.64248355    -0.42800
H525        H  0.34327933  0.78325226  0.68173265     0.13400
H526        H  0.48360269  0.85914023  0.66527127     0.09900
H527        H  0.42334595  0.91583983  0.67610198     0.10900
H528        H  0.51427791  0.95264444  0.59639235     0.16700
C529        C  0.08887697  0.55452744  0.66193723    -0.01500
C530        C  0.12095231  0.56438379  0.64484868     0.07100
C531        C  0.11553966  0.55318072  0.61660825    -0.07400
C532        C  0.07888882  0.53468686  0.60467322     0.04600
C533        C  0.04662239  0.52959664  0.62083036    -0.14700
C534        C  0.05237888  0.53635483  0.65013438    -0.08000
C535        C  0.15985872  0.58357014  0.65697758     0.05500
C536        C  0.17428133  0.56068494  0.66601354    -0.09100
C537        C  0.20797911  0.57665559  0.68170855     0.00500
C538        C  0.22750556  0.61644238  0.68923204     0.00400
C539        C  0.21426882  0.63966189  0.67817854    -0.12700
C540        C  0.18094435  0.62362770  0.66207512     0.00800
C541        C  0.22119142  0.55112211  0.68988526     0.40100
C542        C  0.16881950  0.64888563  0.65131397     0.36800
C543        C  0.09285546  0.56363448  0.69161300     0.36500
C544        C  0.07585978  0.51767612  0.57725444     0.37200
N545        N  0.23173565  0.53057121  0.69628357    -0.43500
N546        N  0.15994581  0.66976694  0.64258218    -0.44000
N547        N  0.07401621  0.50375664  0.55546339    -0.41400
N548        N  0.09618564  0.57112445  0.71535193    -0.42800
H549        H  0.02841943  0.52989463  0.66379961     0.13400
H550        H  0.14002769  0.55794051  0.60403291     0.09900
H551        H  0.15841825  0.52993560  0.66154470     0.10900
H552        H  0.22914720  0.67031285  0.68289127     0.16700
C553        C  0.42663555  0.62120680  0.64944306    -0.01500
C554        C  0.41791859  0.58268641  0.65165330     0.07100
C555        C  0.39079540  0.55851664  0.67167928    -0.07400
C556        C  0.37378504  0.57261936  0.69026088     0.04600
C557        C  0.38426623  0.61186332  0.68910423    -0.14700
C558        C  0.41007269  0.63552552  0.66824399    -0.08000
C559        C  0.44082917  0.56873155  0.63662525     0.05500
C560        C  0.48016786  0.58802042  0.64141236    -0.09100
C561        C  0.50283025  0.57341310  0.63158393     0.00500
C562        C  0.48546810  0.53641622  0.61789652     0.00400
C563        C  0.44621089  0.51945493  0.61081145    -0.12700
C564        C  0.42407906  0.53504328  0.62006248     0.00800
C565        C  0.54326723  0.59902027  0.63565001     0.40100
C566        C  0.38412375  0.51571197  0.61264493     0.36800
C567        C  0.45295898  0.64672448  0.62833307     0.36500
C568        C  0.34800662  0.54691889  0.71159531     0.37200
N569        N  0.07537830  0.62088218  0.63943867    -0.43500
N570        N  0.35212650  0.50038606  0.60661517    -0.44000
N571        N  0.32740683  0.52624709  0.72866015    -0.41400
N572        N  0.97405381  0.66718629  0.61142147    -0.42800
H573        H  0.41778380  0.66548712  0.66692095     0.13400
H574        H  0.38442006  0.52905786  0.67379776     0.09900
H575        H  0.49329975  0.61464361  0.65358952     0.10900
H576        H  0.43205683  0.49240642  0.59925407     0.16700
C577        C  0.47562589  0.97313378  0.53287861    -0.01500
C578        C  0.99744230  0.00588176  0.51611208     0.07100
C579        C  0.02004370  0.54096161  0.53013343    -0.07400
C580        C  0.02265168  0.54401134  0.55951468     0.04600
C581        C  0.00213468  0.51054047  0.57677060    -0.14700
C582        C  0.47683602  0.97652018  0.56221021    -0.08000
C583        C  0.99696663  0.00353563  0.48475000     0.05500
C584        C  0.46200679  0.98723407  0.47081786    -0.09100
C585        C  0.45951874  0.98237086  0.44152172     0.00500
C586        C  0.99471855  0.49415924  0.42533562     0.00400
C587        C  0.02994570  0.51428222  0.43994802    -0.12700
C588        C  0.03171496  0.51770321  0.46928276     0.00800
C589        C  0.42168638  0.96791894  0.43043869     0.40100
C590        C  0.06776844  0.03388101  0.48162380     0.36800
C591        C  0.45277342  0.93517665  0.52053172     0.36500
C592        C  0.04873847  0.58204701  0.57042174     0.37200
N593        N  0.39085724  0.95666832  0.42263717    -0.43500
N594        N  0.09748369  0.04679781  0.49197845    -0.44000
N595        N  0.07074021  0.61335533  0.57717199    -0.41400
N596        N  0.43471180  0.90476685  0.51059746    -0.42800
H597        H  0.45708441  0.95103281  0.57383354     0.13400
H598        H  0.03612447  0.56669827  0.51749028     0.09900
H599        H  0.43614230  0.97833755  0.48310042     0.10900
H600        H  0.05662259  0.52539669  0.42833272     0.16700
C601        C  0.46717792  0.97342707  0.03056512    -0.01500
C602        C  0.49935702  0.00153134  0.01532052     0.07100
C603        C  0.03368137  0.52780697  0.03000227    -0.07400
C604        C  0.03653896  0.52304915  0.05879164     0.04600
C605        C  0.00362498  0.49640750  0.07490578    -0.14700
C606        C  0.46748074  0.97365608  0.06002242    -0.08000
C607        C  0.49992565  0.00485521  0.98366516     0.05500
C608        C  0.46874123  0.49985907  0.96881655    -0.09100
C609        C  0.46699722  0.49923644  0.93935089     0.00500
C610        C  0.00066831  0.51112135  0.92255747     0.00400
C611        C  0.03332841  0.02197658  0.93844629    -0.12700
C612        C  0.03313258  0.01570486  0.96730194     0.00800
C613        C  0.42951438  0.48485427  0.92751628     0.40100
C614        C  0.06732152  0.01871549  0.97877069     0.36800
C615        C  0.43366963  0.94264289  0.01692053     0.36500
C616        C  0.07460578  0.54545323  0.07018648     0.37200
N617        N  0.39909032  0.47294739  0.91865218    -0.43500
N618        N  0.09471256  0.02101162  0.98777300    -0.44000
N619        N  0.10588818  0.56377057  0.07783303    -0.41400
N620        N  0.40681030  0.91784806  0.00612437    -0.42800
H621        H  0.44037134  0.95503659  0.06996065     0.13400
H622        H  0.05810930  0.55124912  0.01936913     0.09900
H623        H  0.44360920  0.49439940  0.98074152     0.10900
H624        H  0.06091109  0.03580437  0.92858818     0.16700
C625        C  0.04632186  0.95384474  0.34204266    -0.01500
C626        C  0.06168836  0.93768357  0.35968638     0.07100
C627        C  0.05306676  0.93475552  0.38842368    -0.07400
C628        C  0.03063005  0.94893176  0.40009429     0.04600
C629        C  0.01729687  0.96842259  0.38270203    -0.14700
C630        C  0.02407838  0.96807933  0.35336798    -0.08000
C631        C  0.08398830  0.92078687  0.34779797     0.05500
C632        C  0.11995268  0.94510305  0.33540160    -0.09100
C633        C  0.13852031  0.92992100  0.31937025     0.00500
C634        C  0.12103111  0.88937835  0.31574114     0.00400
C635        C  0.08635966  0.86527063  0.33008093    -0.12700
C636        C  0.06772265  0.88054801  0.34571208     0.00800
C637        C  0.17373787  0.95687895  0.30517854     0.40100
C638        C  0.03033471  0.85435608  0.35741831     0.36800
C639        C  0.05271151  0.95580670  0.31201782     0.36500
C640        C  0.02029480  0.93957906  0.42927034     0.37200
N641        N  0.20186871  0.97866962  0.29379096    -0.43500
N642        N  0.00025270  0.83348762  0.36667817    -0.44000
N643        N  0.01232079  0.93114881  0.45260645    -0.41400
N644        N  0.05799408  0.95734619  0.28798903    -0.42800
H645        H  0.01336513  0.98099282  0.33908277     0.13400
H646        H  0.06337170  0.92045411  0.40177832     0.09900
H647        H  0.13253122  0.97612772  0.33698090     0.10900
H648        H  0.07252801  0.83418783  0.32782590     0.16700
C649        C  0.32171376  0.92282235  0.33676569    -0.01500
C650        C  0.34638584  0.90790092  0.33473304     0.07100
C651        C  0.33526233  0.87462188  0.31849138    -0.07400
C652        C  0.30111107  0.85730074  0.30320764     0.04600
C653        C  0.27706550  0.87315231  0.30428621    -0.14700
C654        C  0.28760182  0.90561700  0.32147154    -0.08000
C655        C  0.38486665  0.92791258  0.34798746     0.05500
C656        C  0.39383790  0.90887180  0.36808915    -0.09100
C657        C  0.42927875  0.92761580  0.38190644     0.00500
C658        C  0.45656679  0.96742089  0.37662403     0.00400
C659        C  0.44843718  0.98407419  0.35361254    -0.12700
C660        C  0.41322102  0.96527192  0.33991394     0.00800
C661        C  0.43501012  0.90513804  0.40245216     0.40100
C662        C  0.40737620  0.98459715  0.31685853     0.36800
C663        C  0.33106081  0.95605837  0.35417462     0.36500
C664        C  0.29313287  0.82520190  0.28493634     0.37200
N665        N  0.43741241  0.88553856  0.41880476    -0.43500
N666        N  0.40256060  0.50105938  0.30040038    -0.44000
N667        N  0.28684791  0.79960796  0.27019331    -0.41400
N668        N  0.33873595  0.98281164  0.36803223    -0.42800
H669        H  0.26940486  0.91797801  0.32261859     0.13400
H670        H  0.35417779  0.86313263  0.31677785     0.09900
H671        H  0.37265386  0.87932577  0.37343508     0.10900
H672        H  0.47082322  0.51199707  0.34570476     0.16700
C673        C  0.08382832  0.68063869  0.35170393    -0.01500
C674        C  0.07539279  0.64457256  0.34045973     0.07100
C675        C  0.08112708  0.64151254  0.31163661    -0.07400
C676        C  0.09579642  0.67369817  0.29416546     0.04600
C677        C  0.10459598  0.70991873  0.30542737    -0.14700
C678        C  0.09797188  0.71287948  0.33411335    -0.08000
C679        C  0.05935957  0.60916915  0.35790942     0.05500
C680        C  0.02412404  0.59550038  0.37154416    -0.09100
C681        C  0.00545660  0.55954124  0.38487478     0.00500
C682        C  0.02083421  0.53463691  0.38307922     0.00400
C683        C  0.05909731  0.55175856  0.37293258    -0.12700
C684        C  0.07770953  0.58779140  0.35985710     0.00800
C685        C  0.46927250  0.54873942  0.39814615     0.40100
C686        C  0.11575863  0.60223141  0.34852064     0.36800
C687        C  0.07953119  0.68548322  0.38136098     0.36500
C688        C  0.10045052  0.66841382  0.26457624     0.37200
N689        N  0.44051588  0.54223683  0.40819028    -0.43500
N690        N  0.14621615  0.61374953  0.33940296    -0.44000
N691        N  0.10411198  0.66391046  0.24092673    -0.41400
N692        N  0.07610516  0.68917817  0.40517923    -0.42800
H693        H  0.10482423  0.74060503  0.34291276     0.13400
H694        H  0.07391001  0.61372029  0.30272497     0.09900
H695        H  0.01038797  0.61249493  0.37091470     0.10900
H696        H  0.07499778  0.53712655  0.37470827     0.16700
C697        C  0.11271342  0.93732124  0.17006581    -0.01500
C698        C  0.07334682  0.91705943  0.16378765     0.07100
C699        C  0.05041282  0.87903201  0.17305954    -0.07400
C700        C  0.06573789  0.86129591  0.18906971     0.04600
C701        C  0.10524015  0.88189608  0.19618855    -0.14700
C702        C  0.12822965  0.91974640  0.18602888    -0.08000
C703        C  0.05482723  0.93568888  0.14938121     0.05500
C704        C  0.05622596  0.93828462  0.12006719    -0.09100
C705        C  0.03868843  0.95540453  0.10572555     0.00500
C706        C  0.02054294  0.97254012  0.12115660     0.00400
C707        C  0.01792405  0.96752930  0.15079733    -0.12700
C708        C  0.03450478  0.94946575  0.16470215     0.00800
C709        C  0.03850501  0.95200864  0.07552344     0.40100
C710        C  0.03107109  0.94623308  0.19492570     0.36800
C711        C  0.13781963  0.97657290  0.16113976     0.36500
C712        C  0.03954778  0.82247930  0.19854071     0.37200
N713        N  0.03849062  0.94813964  0.05137118    -0.43500
N714        N  0.02825199  0.94352151  0.21913266    -0.44000
N715        N  0.01842833  0.79139629  0.20611180    -0.41400
N716        N  0.15879149  0.00801749  0.15425909    -0.42800
H717        H  0.15846060  0.93617824  0.19100696     0.13400
H718        H  0.02007617  0.86343908  0.16831318     0.09900
H719        H  0.07052106  0.92602508  0.10825120     0.10900
H720        H  0.00386102  0.97924578  0.16347591     0.16700
C721        C  0.40978154  0.97437466  0.15139474    -0.01500
C722        C  0.38396544  0.93532282  0.14558137     0.07100
C723        C  0.39641395  0.91462656  0.12936425    -0.07400
C724        C  0.43375469  0.93246620  0.11828742     0.04600
C725        C  0.45957861  0.97318729  0.12167972    -0.14700
C726        C  0.44686245  0.99244919  0.14018141    -0.08000
C727        C  0.34570416  0.91466045  0.15943556     0.05500
C728        C  0.31788661  0.92409196  0.15286428    -0.09100
C729        C  0.28298901  0.90773189  0.16776641     0.00500
C730        C  0.27552969  0.88122624  0.18954753     0.00400
C731        C  0.30313439  0.87111302  0.19532072    -0.12700
C732        C  0.33794895  0.88773048  0.18075810     0.00800
C733        C  0.25540904  0.91836492  0.16014187     0.40100
C734        C  0.36630798  0.87856040  0.18932229     0.36800
C735        C  0.39965542  0.99605773  0.17038628     0.36500
C736        C  0.44429872  0.90751459  0.10378557     0.37200
N737        N  0.23327403  0.92684881  0.15399363    -0.43500
N738        N  0.38918979  0.87146642  0.19618906    -0.44000
N739        N  0.45187411  0.88682475  0.09227263    -0.41400
N740        N  0.39158982  0.01337492  0.18565646    -0.42800
H741        H  0.46586076  0.02141152  0.14762265     0.13400
H742        H  0.37706330  0.88393819  0.12603272     0.09900
H743        H  0.32382692  0.94485958  0.13644228     0.10900
H744        H  0.29833434  0.85134360  0.21225320     0.16700
C745        C  0.02415028  0.59890764  0.11932923    -0.01500
C746        C  0.05583445  0.61598888  0.13726995     0.07100
C747        C  0.07406893  0.59578980  0.14371345    -0.07400
C748        C  0.06055096  0.55828312  0.13383517     0.04600
C749        C  0.02595848  0.53865563  0.11775659    -0.14700
C750        C  0.01047151  0.56141649  0.10903652    -0.08000
C751        C  0.06967591  0.65387945  0.15125326     0.05500
C752        C  0.04648670  0.65673194  0.17198983    -0.09100
C753        C  0.06118168  0.68848943  0.19031264     0.00500
C754        C  0.10007847  0.71849850  0.18789134     0.00400
C755        C  0.12240917  0.71659233  0.16578297    -0.12700
C756        C  0.10761912  0.68464799  0.14764134     0.00800
C757        C  0.03633133  0.68748777  0.21268839     0.40100
C758        C  0.13230697  0.68332419  0.12611063     0.36800
C759        C  0.00462224  0.61888796  0.11180352     0.36500
C760        C  0.08603968  0.54408600  0.13880216     0.37200
N761        N  0.01633830  0.68643864  0.23064321    -0.43500
N762        N  0.15206998  0.68214442  0.10889969    -0.44000
N763        N  0.10768549  0.53422056  0.14288824    -0.41400
N764        N  0.98880497  0.63481250  0.10592793    -0.42800
H765        H  0.98554200  0.54859876  0.09559349     0.13400
H766        H  0.09936987  0.60965945  0.15683115     0.09900
H767        H  0.01745128  0.63281953  0.17504754     0.10900
H768        H  0.15202021  0.73945706  0.16324696     0.16700
Fe769      Fe  0.69001586  0.29579973  0.24582130     1.65800
Fe770      Fe  0.69695811  0.38371414  0.24972236     1.73200
Fe771      Fe  0.60988915  0.30045150  0.25456580     1.54400
O772        O  0.60035680  0.25833369  0.22506501    -0.81100
O773        O  0.67033185  0.39029728  0.28518378    -0.79400
O774        O  0.65667022  0.26661886  0.21150079    -0.83600
O775        O  0.65170521  0.25175029  0.27169310    -0.78500
O776        O  0.60515238  0.33206225  0.22293740    -0.80300
O777        O  0.73818638  0.38406297  0.27553775    -0.83000
C778        C  0.62324713  0.24477600  0.28708966     0.97800
C779        C  0.62049821  0.25005183  0.20913364     1.05200
O780        O  0.66569767  0.32690033  0.25012959    -1.12000
O781        O  0.72825612  0.38570889  0.21417938    -0.74400
O782        O  0.73267099  0.33363463  0.21934076    -0.77900
O783        O  0.60835838  0.26573776  0.28688842    -0.78600
C784        C  0.74376730  0.36603668  0.20824553     0.96700
O785        O  0.72545916  0.32334564  0.27957325    -0.76600
O786        O  0.65912751  0.38926224  0.22378256    -0.81800
C787        C  0.63598155  0.37177266  0.29415849     0.99300
C788        C  0.62518390  0.36683416  0.21494469     1.05200
O789        O  0.61162278  0.33895837  0.28420641    -0.77400
C790        C  0.74505355  0.35914098  0.28576946     1.03500
C791        C  0.50173314  0.99479971  0.10887611    -0.01900
C792        C  0.49607984  0.99033040  0.39221328    -0.01900
Fe793      Fe  0.80817196  0.20160009  0.74947101     1.65800
Fe794      Fe  0.80668312  0.11594877  0.75203982     1.73200
Fe795      Fe  0.89212817  0.20088380  0.75012305     1.54400
O796        O  0.89763175  0.23934508  0.71950071    -0.81100
O797        O  0.83791034  0.11387483  0.78491211    -0.79400
O798        O  0.84282808  0.23867079  0.71797881    -0.83600
O799        O  0.84247403  0.24068147  0.78005400    -0.78500
O800        O  0.89480013  0.16633650  0.71868459    -0.80300
O801        O  0.76807284  0.11352501  0.78098311    -0.83000
C802        C  0.87543489  0.25195837  0.79001964     0.97800
C803        C  0.87714647  0.25179288  0.70973293     1.05200
O804        O  0.83563119  0.17288017  0.75048501    -1.12000
O805        O  0.77147963  0.11103275  0.71968488    -0.74400
O806        O  0.77049073  0.16562975  0.71887479    -0.77900
O807        O  0.89608399  0.23863382  0.78132314    -0.78600
C808        C  0.75880668  0.13146296  0.71008010     0.96700
O809        O  0.76925356  0.16912391  0.78086096    -0.76600
O810        O  0.84094383  0.10961265  0.72307656    -0.81800
C811        C  0.87217127  0.13507339  0.79293029     0.99300
C812        C  0.87349583  0.13103451  0.71194065     1.05200
O813        O  0.89500487  0.16705115  0.78122497    -0.77400
C814        C  0.75563115  0.13486484  0.78951667     1.03500
C815        C  0.49867324  0.01033973  0.88994843    -0.01900
C816        C  0.50575908  0.01372441  0.60918109    -0.01900
C817        C  0.94958870  0.33722000  0.83232545    -0.01500
C818        C  0.92761616  0.35107301  0.84525111     0.07100
C819        C  0.88766919  0.32971252  0.84288260    -0.07400
C820        C  0.86955311  0.29609081  0.82631239     0.04600
C821        C  0.89179508  0.28352418  0.81152588    -0.14700
C822        C  0.93169489  0.30374595  0.81576529    -0.08000
C823        C  0.94612533  0.39056213  0.85731849     0.05500
C824        C  0.96122517  0.42136465  0.83871381    -0.09100
C825        C  0.97837138  0.45949605  0.84826027     0.00500
C826        C  0.98037048  0.46818823  0.87772862     0.00400
C827        C  0.96621218  0.43615767  0.89622868    -0.12700
C828        C  0.94892633  0.39799007  0.88629236     0.00800
C829        C  0.99223386  0.48818627  0.82645995     0.40100
C830        C  0.93498373  0.36687701  0.90622360     0.36800
C831        C  0.99075112  0.35777720  0.83496132     0.36500
C832        C  0.82829736  0.27571951  0.82465213     0.37200
N833        N  0.50218826  0.50922556  0.80767066    -0.43500
N834        N  0.92389261  0.34196553  0.92221540    -0.43600
N835        N  0.79522722  0.25946527  0.82340159    -0.41400
N836        N  0.52371106  0.37422594  0.83713501    -0.42800
H837        H  0.94941647  0.29454421  0.80507826     0.13400
H838        H  0.87074414  0.34033264  0.85298832     0.09900
H839        H  0.95929494  0.41539792  0.81628458     0.10900
H840        H  0.96861200  0.44000118  0.91872844     0.16700
C841        C  0.68475102  0.12638744  0.84590872    -0.01500
C842        C  0.65648424  0.08679468  0.84402739     0.07100
C843        C  0.66198872  0.06313810  0.82518666    -0.07400
C844        C  0.69439802  0.07801722  0.80799238     0.04600
C845        C  0.72249609  0.11787172  0.80923336    -0.14700
C846        C  0.71737066  0.14161922  0.82847719    -0.08000
C847        C  0.61851548  0.06997281  0.85819921     0.05500
C848        C  0.59534587  0.08485833  0.85155817    -0.09100
C849        C  0.55679925  0.06637849  0.85975304     0.00500
C850        C  0.54051510  0.03263871  0.87712199     0.00400
C851        C  0.56390205  0.01650424  0.88148390    -0.12700
C852        C  0.60245762  0.03533892  0.87332885     0.00800
C853        C  0.53509488  0.07992013  0.84525942     0.40100
C854        C  0.62521006  0.01884066  0.88113993     0.36800
C855        C  0.68080489  0.15188202  0.86539933     0.36500
C856        C  0.69631882  0.05180590  0.78796991     0.37200
N857        N  0.51864306  0.09062335  0.83216414    -0.43500
N858        N  0.64356873  0.00578655  0.88744636    -0.44000
N859        N  0.69765845  0.03064731  0.77199928    -0.41400
N860        N  0.67774102  0.17239793  0.88100409    -0.42800
H861        H  0.73867674  0.17212914  0.82974167     0.13400
H862        H  0.63984094  0.03300226  0.82293679     0.09900
H863        H  0.60684658  0.10974853  0.83785828     0.10900
H864        H  0.55231899  0.98960271  0.89285238     0.16700
C865        C  0.92354023  0.02895151  0.85501387    -0.01500
C866        C  0.93507456  0.06679695  0.86402736     0.07100
C867        C  0.96400434  0.08428513  0.88421160    -0.07400
C868        C  0.98417541  0.06663708  0.89307016     0.04600
C869        C  0.97505042  0.02972502  0.88212481    -0.14700
C870        C  0.94240608  0.01061547  0.86472464    -0.08000
C871        C  0.91912342  0.08904541  0.85090964     0.05500
C872        C  0.87925191  0.07280007  0.84968306    -0.09100
C873        C  0.86300973  0.08846206  0.83241266     0.00500
C874        C  0.88697260  0.12121518  0.81573145     0.00400
C875        C  0.92678316  0.13982299  0.81956102    -0.12700
C876        C  0.94291594  0.12439420  0.83702673     0.00800
C877        C  0.82177873  0.07002971  0.83228781     0.40100
C878        C  0.98408225  0.14515741  0.83939718     0.36800
C879        C  0.89345871  0.00849527  0.83468543     0.36500
C880        C  0.01583124  0.08857602  0.91190033     0.37200
N881        N  0.78874316  0.05530942  0.83237208    -0.43500
N882        N  0.51701074  0.16263425  0.84145405    -0.44000
N883        N  0.04118432  0.10639113  0.92694114    -0.41400
N884        N  0.86934789  0.99187137  0.81847600    -0.42800
H885        H  0.93101875  0.98110844  0.85806834     0.13400
H886        H  0.97213507  0.11276936  0.89215752     0.09900
H887        H  0.86065602  0.04681945  0.86146671     0.10900
H888        H  0.94576961  0.16581362  0.80792977     0.16700
C889        C  0.88740388  0.33242898  0.66284337    -0.01500
C890        C  0.92742483  0.35492771  0.65857018     0.07100
C891        C  0.95027748  0.34078729  0.66834180    -0.07400
C892        C  0.93435933  0.30583000  0.68291465     0.04600
C893        C  0.89455029  0.28472288  0.68935506    -0.14700
C894        C  0.87148023  0.29807968  0.67827543    -0.08000
C895        C  0.94627338  0.39429594  0.64575938     0.05500
C896        C  0.93960926  0.42218901  0.65778237    -0.09100
C897        C  0.95783225  0.46016300  0.64771371     0.00500
C898        C  0.98302918  0.47123270  0.62373756     0.00400
C899        C  0.99207859  0.44352821  0.61383038    -0.12700
C900        C  0.97318362  0.40549066  0.62365420     0.00800
C901        C  0.95261078  0.48679082  0.66506061     0.40100
C902        C  0.98114040  0.37818113  0.60998369     0.36800
C903        C  0.86200102  0.34391436  0.65152732     0.36500
C904        C  0.96013330  0.29311666  0.69117120     0.37200
N905        N  0.94820628  0.50737943  0.67967926    -0.43500
N906        N  0.98744451  0.35624853  0.59900551    -0.44000
N907        N  0.98094184  0.28296635  0.69745663    -0.41400
N908        N  0.84162550  0.35304101  0.64238089    -0.42800
H909        H  0.84084790  0.28213496  0.68215824     0.13400
H910        H  0.98104672  0.35768342  0.66520067     0.09900
H911        H  0.92094529  0.41452412  0.67608148     0.10900
H912        H  0.01305686  0.45119099  0.59714814     0.16700
C913        C  0.58981264  0.05463129  0.66109996    -0.01500
C914        C  0.62174871  0.06420810  0.64395932     0.07100
C915        C  0.61635705  0.05379456  0.61558222    -0.07400
C916        C  0.57976171  0.03590427  0.60362794     0.04600
C917        C  0.54759561  0.03072432  0.61996129    -0.14700
C918        C  0.55340039  0.03716346  0.64929092    -0.08000
C919        C  0.66046123  0.08227032  0.65616543     0.05500
C920        C  0.67220625  0.05832546  0.66758876    -0.09100
C921        C  0.70543063  0.07366340  0.68371826     0.00500
C922        C  0.72752711  0.11410370  0.68890969     0.00400
C923        C  0.71680263  0.13810142  0.67563071    -0.12700
C924        C  0.68364116  0.12252983  0.65936820     0.00800
C925        C  0.71450792  0.04660609  0.69564394     0.40100
C926        C  0.67334278  0.14834542  0.64692357     0.36800
C927        C  0.59389038  0.06347642  0.69082182     0.36500
C928        C  0.57669192  0.01952639  0.57596671     0.37200
N929        N  0.72160281  0.02472449  0.70506586    -0.43500
N930        N  0.66551338  0.16933531  0.63688607    -0.44000
N931        N  0.57488295  0.00614057  0.55396473    -0.41400
N932        N  0.59730554  0.07077323  0.71459198    -0.42800
H933        H  0.52953243  0.03087013  0.66301029     0.13400
H934        H  0.64078313  0.05852573  0.60293732     0.09900
H935        H  0.65435179  0.02729776  0.66489144     0.10900
H936        H  0.73357201  0.16911161  0.67872345     0.16700
C937        C  0.92794114  0.12291873  0.64967930    -0.01500
C938        C  0.92040411  0.08485380  0.65222664     0.07100
C939        C  0.89496685  0.06103842  0.67316870    -0.07400
C940        C  0.87842550  0.07501311  0.69227658     0.04600
C941        C  0.88745188  0.11384736  0.69064478    -0.14700
C942        C  0.91165184  0.13713067  0.66888252    -0.08000
C943        C  0.94295041  0.07104432  0.63649930     0.05500
C944        C  0.98238988  0.09026196  0.64077786    -0.09100
C945        C  0.00464128  0.07515428  0.63093545     0.00500
C946        C  0.98675065  0.03790373  0.61751712     0.00400
C947        C  0.94742517  0.02116689  0.61076655    -0.12700
C948        C  0.92568535  0.03711559  0.62020055     0.00800
C949        C  0.04521784  0.10044236  0.63482098     0.40100
C950        C  0.88554331  0.01782019  0.61335290     0.36800
C951        C  0.95256794  0.14797558  0.62767665     0.36500
C952        C  0.85455590  0.04951406  0.71443489     0.37200
N953        N  0.57750077  0.12201646  0.63847148    -0.43500
N954        N  0.85339727  0.00251729  0.60776764    -0.44000
N955        N  0.83549659  0.02897056  0.73214333    -0.41400
N956        N  0.47226386  0.16807443  0.61000882    -0.42800
H957        H  0.91825206  0.16669378  0.66706894     0.13400
H958        H  0.88954541  0.03193926  0.67550483     0.09900
H959        H  0.99587498  0.11709483  0.65270961     0.10900
H960        H  0.93291009  0.99398288  0.59938952     0.16700
C961        C  0.97576157  0.47242307  0.53325504    -0.01500
C962        C  0.49795957  0.50529964  0.51665776     0.07100
C963        C  0.51967792  0.04168696  0.52942971    -0.07400
C964        C  0.52273948  0.04494542  0.55878553     0.04600
C965        C  0.50256489  0.01157477  0.57618539    -0.14700
C966        C  0.97655398  0.47560894  0.56259863    -0.08000
C967        C  0.49780748  0.50320820  0.48527429     0.05500
C968        C  0.96290224  0.48673960  0.47116179    -0.09100
C969        C  0.96066402  0.48202015  0.44185591     0.00500
C970        C  0.49338737  0.99399717  0.42489711     0.00400
C971        C  0.52874660  0.01390031  0.43934431    -0.12700
C972        C  0.53077396  0.01765008  0.46864695     0.00800
C973        C  0.92280198  0.46708612  0.43069075     0.40100
C974        C  0.56867294  0.53400268  0.48245935     0.36800
C975        C  0.95288790  0.43457060  0.52075165     0.36500
C976        C  0.54904489  0.08304582  0.56948579     0.37200
N977        N  0.89189926  0.45539979  0.42287908    -0.43500
N978        N  0.59828021  0.54691582  0.49298760    -0.44000
N979        N  0.57121155  0.11438205  0.57606255    -0.41400
N980        N  0.93477496  0.40425732  0.51068094    -0.42800
H981        H  0.95654159  0.45008341  0.57407380     0.13400
H982        H  0.53555721  0.06732539  0.51665751     0.09900
H983        H  0.93689660  0.47756323  0.48333337     0.10900
H984        H  0.55529801  0.02461834  0.42762483     0.16700
C985        C  0.96892807  0.47411722  0.02986588    -0.01500
C986        C  0.00102953  0.50228109  0.01459164     0.07100
C987        C  0.53184312  0.02726585  0.03084777    -0.07400
C988        C  0.53451740  0.02257031  0.05967563     0.04600
C989        C  0.50145286  0.99611922  0.07570444    -0.14700
C990        C  0.96954536  0.47388632  0.05934165    -0.08000
C991        C  0.00148058  0.50579127  0.98296498     0.05500
C992        C  0.96689732  0.99786582  0.96939301    -0.09100
C993        C  0.96525856  0.99691934  0.93992596     0.00500
C994        C  0.49916926  0.00982394  0.92323833     0.00400
C995        C  0.53464609  0.52215595  0.93758430    -0.12700
C996        C  0.53437138  0.51570193  0.96642353     0.00800
C997        C  0.92768817  0.98138927  0.92792338     0.40100
C998        C  0.56788032  0.51717228  0.97781382     0.36800
C999        C  0.93523414  0.44374738  0.01613160     0.36500
C1000       C  0.57251430  0.04480402  0.07122090     0.37200
N1001       N  0.89721989  0.96853433  0.91888690    -0.43500
N1002       N  0.59462235  0.51807734  0.98681210    -0.44000
N1003       N  0.60372872  0.06289577  0.07904681    -0.41400
N1004       N  0.90827205  0.41929156  0.00520070    -0.42800
H1005       H  0.94261748  0.45490885  0.06942490     0.13400
H1006       H  0.55625042  0.05086494  0.02035531     0.09900
H1007       H  0.94154179  0.99196764  0.98113124     0.10900
H1008       H  0.56219546  0.53503628  0.92752046     0.16700
C1009       C  0.54967147  0.45675709  0.34203074    -0.01500
C1010       C  0.56438902  0.43970179  0.35939358     0.07100
C1011       C  0.55551419  0.43615182  0.38807969    -0.07400
C1012       C  0.53323075  0.45033971  0.40001641     0.04600
C1013       C  0.51977444  0.46996154  0.38287413    -0.14700
C1014       C  0.52713229  0.47056643  0.35354681    -0.08000
C1015       C  0.58546758  0.42167672  0.34722624     0.05500
C1016       C  0.62358177  0.44495485  0.33818537    -0.09100
C1017       C  0.64217214  0.42917486  0.32278576     0.00500
C1018       C  0.62208601  0.38925652  0.31574957     0.00400
C1019       C  0.58484330  0.36586802  0.32684705    -0.12700
C1020       C  0.56656339  0.38166672  0.34225444     0.00800
C1021       C  0.68114639  0.45507126  0.31373117     0.40100
C1022       C  0.52737859  0.35654805  0.35119988     0.36800
C1023       C  0.55719728  0.46025311  0.31213526     0.36500
C1024       C  0.52332949  0.44096214  0.42923518     0.37200
N1025       N  0.71246196  0.47596887  0.30669553    -0.43500
N1026       N  0.49594702  0.33652671  0.35834095    -0.44000
N1027       N  0.51586096  0.43256472  0.45262342    -0.41400
N1028       N  0.56340446  0.46316361  0.28820952    -0.42800
H1029       H  0.51658161  0.48384340  0.33945426     0.13400
H1030       H  0.56544479  0.42126643  0.40117407     0.09900
H1031       H  0.63836501  0.47576004  0.34233371     0.10900
H1032       H  0.56896604  0.33514641  0.32236592     0.16700
C1033       C  0.82270985  0.42240788  0.33763885    -0.01500
C1034       C  0.84760400  0.40774266  0.33554399     0.07100
C1035       C  0.83662261  0.37454911  0.31923002    -0.07400
C1036       C  0.80255081  0.35721071  0.30383033     0.04600
C1037       C  0.77851255  0.37309481  0.30469804    -0.14700
C1038       C  0.78879118  0.40533821  0.32208692    -0.08000
C1039       C  0.88621155  0.42797765  0.34869585     0.05500
C1040       C  0.89577517  0.40887538  0.36836357    -0.09100
C1041       C  0.93138426  0.42778397  0.38199129     0.00500
C1042       C  0.95828503  0.46772586  0.37689125     0.00400
C1043       C  0.94974282  0.48434796  0.35409159    -0.12700
C1044       C  0.91426080  0.46554550  0.34074923     0.00800
C1045       C  0.93770621  0.40537314  0.40222640     0.40100
C1046       C  0.90779104  0.48521585  0.31826860     0.36800
C1047       C  0.83156127  0.45517143  0.35544182     0.36500
C1048       C  0.79459960  0.32493002  0.28577675     0.37200
N1049       N  0.94071731  0.38589757  0.41834521    -0.43500
N1050       N  0.90252693  0.00001894  0.29844759    -0.44000
N1051       N  0.78832574  0.29912536  0.27127161    -0.41400
N1052       N  0.83877002  0.48150207  0.36965037    -0.42800
H1053       H  0.77052620  0.41762189  0.32322229     0.13400
H1054       H  0.85559175  0.36311970  0.31755795     0.09900
H1055       H  0.87490396  0.37918023  0.37357528     0.10900
H1056       H  0.96958351  0.01160807  0.34521622     0.16700
C1057       C  0.58470885  0.18006714  0.35096841    -0.01500
C1058       C  0.57622975  0.14402800  0.33958787     0.07100
C1059       C  0.58256146  0.14136298  0.31080736    -0.07400
C1060       C  0.59775121  0.17381536  0.29353925     0.04600
C1061       C  0.60634009  0.20993062  0.30490461    -0.14700
C1062       C  0.59921461  0.21253584  0.33354694    -0.08000
C1063       C  0.55947109  0.10829087  0.35683091     0.05500
C1064       C  0.52445971  0.09530385  0.37067294    -0.09100
C1065       C  0.50532165  0.05943272  0.38414035     0.00500
C1066       C  0.51985936  0.03382206  0.38229505     0.00400
C1067       C  0.55784776  0.05008006  0.37172635    -0.12700
C1068       C  0.57697752  0.08606386  0.35854848     0.00800
C1069       C  0.96964934  0.04962956  0.39792003     0.40100
C1070       C  0.61475297  0.09960595  0.34697724     0.36800
C1071       C  0.58013056  0.18468271  0.38061990     0.36500
C1072       C  0.60317982  0.16890492  0.26402465     0.37200
N1073       N  0.94148048  0.04400527  0.40850786    -0.43500
N1074       N  0.64498146  0.11035716  0.33767234    -0.44000
N1075       N  0.60751733  0.16472123  0.24043874    -0.41400
N1076       N  0.57649947  0.18820473  0.40443371    -0.42800
H1077       H  0.60595235  0.24016955  0.34246006     0.13400
H1078       H  0.57538172  0.11365885  0.30174805     0.09900
H1079       H  0.51130728  0.11284878  0.37020821     0.10900
H1080       H  0.57321103  0.03488315  0.37335264     0.16700
C1081       C  0.61586355  0.43640392  0.16704783    -0.01500
C1082       C  0.57618481  0.41689341  0.16198457     0.07100
C1083       C  0.55283162  0.37973966  0.17271581    -0.07400
C1084       C  0.56803594  0.36227969  0.18913860     0.04600
C1085       C  0.60786020  0.38227959  0.19524366    -0.14700
C1086       C  0.63129380  0.41912838  0.18349817    -0.08000
C1087       C  0.55780246  0.43579265  0.14774062     0.05500
C1088       C  0.55867225  0.43819014  0.11841868    -0.09100
C1089       C  0.54117732  0.45554678  0.10431496     0.00500
C1090       C  0.52333137  0.47280446  0.11998963     0.00400
C1091       C  0.52133550  0.46808349  0.14963478    -0.12700
C1092       C  0.53822337  0.45018563  0.16332481     0.00800
C1093       C  0.54082238  0.45237145  0.07409205     0.40100
C1094       C  0.53620021  0.44809647  0.19362710     0.36800
C1095       C  0.64125881  0.47469383  0.15640184     0.36500
C1096       C  0.54138831  0.32450992  0.20019635     0.37200
N1097       N  0.54073396  0.44874212  0.04991202    -0.43500
N1098       N  0.53465909  0.44642841  0.21790442    -0.44000
N1099       N  0.51989761  0.29426380  0.20902106    -0.41400
N1100       N  0.66210894  0.50535636  0.14798013    -0.42800
H1101       H  0.66178685  0.43500354  0.18760224     0.13400
H1102       H  0.52226055  0.36473081  0.16887978     0.09900
H1103       H  0.57257642  0.42566938  0.10642162     0.10900
H1104       H  0.50766172  0.48005961  0.16248444     0.16700
C1105       C  0.91264431  0.47442083  0.15131544    -0.01500
C1106       C  0.88685774  0.43527842  0.14581952     0.07100
C1107       C  0.89924443  0.41450549  0.12959673    -0.07400
C1108       C  0.93638318  0.43244657  0.11802859     0.04600
C1109       C  0.96217471  0.47320998  0.12122357    -0.14700
C1110       C  0.94961915  0.49243816  0.13992013    -0.08000
C1111       C  0.84855439  0.41484988  0.15971171     0.05500
C1112       C  0.82081586  0.42429789  0.15287170    -0.09100
C1113       C  0.78589785  0.40828996  0.16774447     0.00500
C1114       C  0.77823228  0.38197673  0.18970548     0.00400
C1115       C  0.80580600  0.37195965  0.19585213    -0.12700
C1116       C  0.84070802  0.38833819  0.18138138     0.00800
C1117       C  0.75851761  0.41908604  0.15989873     0.40100
C1118       C  0.86903621  0.37939229  0.19042198     0.36800
C1119       C  0.90253378  0.49638741  0.17002598     0.36500
C1120       C  0.94684646  0.40753478  0.10338024     0.37200
N1121       N  0.73660199  0.42776935  0.15354385    -0.43500
N1122       N  0.89182732  0.37243395  0.19777135    -0.44000
N1123       N  0.95440097  0.38688170  0.09178442    -0.41400
N1124       N  0.89445996  0.51397706  0.18500638    -0.42800
H1125       H  0.96864045  0.52139360  0.14734409     0.13400
H1126       H  0.87995485  0.38376295  0.12648695     0.09900
H1127       H  0.82685121  0.44484592  0.13626099     0.10900
H1128       H  0.80087728  0.35244060  0.21299871     0.16700
C1129       C  0.52286928  0.09939227  0.11921745    -0.01500
C1130       C  0.55453928  0.11637067  0.13715098     0.07100
C1131       C  0.57219598  0.09581134  0.14406387    -0.07400
C1132       C  0.55811550  0.05802543  0.13464825     0.04600
C1133       C  0.52358347  0.03851869  0.11849948    -0.14700
C1134       C  0.50853213  0.06153795  0.10944071    -0.08000
C1135       C  0.56871841  0.15435631  0.15098859     0.05500
C1136       C  0.54669345  0.15678421  0.17285163    -0.09100
C1137       C  0.56230509  0.18832888  0.19136254     0.00500
C1138       C  0.60086347  0.21872261  0.18784916     0.00400
C1139       C  0.62201425  0.21719386  0.16474193    -0.12700
C1140       C  0.60634028  0.18531209  0.14647583     0.00800
C1141       C  0.53899285  0.18652975  0.21514994     0.40100
C1142       C  0.62980608  0.18415687  0.12388156     0.36800
C1143       C  0.50423294  0.12000246  0.11104311     0.36500
C1144       C  0.58307208  0.04339445  0.14013331     0.37200
N1145       N  0.52028914  0.18478965  0.23427318    -0.43500
N1146       N  0.64855299  0.18310936  0.10577950    -0.44000
N1147       N  0.60436039  0.03322065  0.14463075    -0.41400
N1148       N  0.48924103  0.13652296  0.10456873    -0.42800
H1149       H  0.48365675  0.04881425  0.09594724     0.13400
H1150       H  0.59749670  0.10964303  0.15719045     0.09900
H1151       H  0.51801501  0.13259568  0.17666788     0.10900
H1152       H  0.65136328  0.24030181  0.16148556     0.16700
Fe1153     Fe  0.68811060  0.79539397  0.24628460     1.65800
Fe1154     Fe  0.69474420  0.88296516  0.24975830     1.73200
Fe1155     Fe  0.60777516  0.79974736  0.25467333     1.54400
O1156       O  0.59853374  0.75746198  0.22523397    -0.81100
O1157       O  0.66865382  0.88939527  0.28547819    -0.79400
O1158       O  0.65519294  0.76644605  0.21187964    -0.83600
O1159       O  0.64966363  0.75125999  0.27197590    -0.78500
O1160       O  0.60282333  0.83104031  0.22293191    -0.80300
O1161       O  0.73654536  0.88365214  0.27505587    -0.83000
C1162       C  0.62128472  0.74443834  0.28739844     0.97800
C1163       C  0.61904231  0.74960085  0.20931689     1.05200
O1164       O  0.66357788  0.82626377  0.25034611    -1.12000
O1165       O  0.72516641  0.88451498  0.21387039    -0.74400
O1166       O  0.73089510  0.83337977  0.21996322    -0.77900
O1167       O  0.60643253  0.76541882  0.28715827    -0.78600
C1168       C  0.74127336  0.86530384  0.20833491     0.96700
O1169       O  0.72314441  0.82287961  0.28016442    -0.76600
O1170       O  0.65644633  0.88845247  0.22441713    -0.81800
C1171       C  0.63418007  0.87124206  0.29420422     0.99300
C1172       C  0.62261070  0.86602868  0.21541414     1.05200
O1173       O  0.60949678  0.83858003  0.28416061    -0.77400
C1174       C  0.74319862  0.85882372  0.28571327     1.03500
C1175       C  0.50416709  0.49488010  0.10802848    -0.01900
C1176       C  0.49768532  0.49096194  0.39261873    -0.01900
Fe1177     Fe  0.80939830  0.70204379  0.74868700     1.65800
Fe1178     Fe  0.80743799  0.61676877  0.75178246     1.73200
Fe1179     Fe  0.89288677  0.70143127  0.74818767     1.54400
O1180       O  0.89676561  0.73477449  0.71425257    -0.81100
O1181       O  0.84376804  0.61417588  0.78032132    -0.79400
O1182       O  0.84771039  0.74364515  0.72073745    -0.83600
O1183       O  0.84017751  0.73643429  0.78229435    -0.78500
O1184       O  0.89465810  0.66255299  0.72015323    -0.80300
O1185       O  0.77548331  0.61663752  0.78524340    -0.83000
C1186       C  0.87546001  0.75254957  0.78838210     0.97800
C1187       C  0.87926920  0.75238887  0.70877204     1.05200
O1188       O  0.83664754  0.67343288  0.74944594    -1.12000
O1189       O  0.76655180  0.61148104  0.72380450    -0.74400
O1190       O  0.77641590  0.66989157  0.71495461    -0.77900
O1191       O  0.89778679  0.74355506  0.77602165    -0.78600
C1192       C  0.75910773  0.63370896  0.71023350     0.96700
O1193       O  0.76644763  0.66537693  0.77664825    -0.76600
O1194       O  0.83629274  0.61008252  0.71865222    -0.81800
C1195       C  0.87593851  0.63781504  0.79100886     0.99300
C1196       C  0.87081959  0.62928662  0.71042935     1.05200
O1197       O  0.89637874  0.67217698  0.78226701    -0.77400
C1198       C  0.75791038  0.63453106  0.78949839     1.03500
C1199       C  0.49984703  0.51097368  0.88921623    -0.01900
C1200       C  0.50484371  0.51251381  0.60980608    -0.01900
C1201       C  0.95043020  0.83845372  0.82989858    -0.01500
C1202       C  0.92854543  0.85173254  0.84373517     0.07100
C1203       C  0.88854557  0.82998037  0.84205549    -0.07400
C1204       C  0.87018262  0.79647782  0.82537778     0.04600
C1205       C  0.89224113  0.78435413  0.80976874    -0.14700
C1206       C  0.93231936  0.80509507  0.81324009    -0.08000
C1207       C  0.94700093  0.89093024  0.85633460     0.05500
C1208       C  0.96230509  0.92224265  0.83818271    -0.09100
C1209       C  0.97888202  0.96008162  0.84827815     0.00500
C1210       C  0.98016491  0.96792753  0.87785454     0.00400
C1211       C  0.96604508  0.93544599  0.89589215    -0.12700
C1212       C  0.94918194  0.89756714  0.88540830     0.00800
C1213       C  0.99287610  0.98936456  0.82690784     0.40100
C1214       C  0.93490619  0.86590126  0.90487980     0.36800
C1215       C  0.99167931  0.85934952  0.83183908     0.36500
C1216       C  0.82888356  0.77609594  0.82430725     0.37200
N1217       N  0.50312457  0.01091293  0.80844849    -0.43500
N1218       N  0.92349505  0.84050470  0.92046929    -0.43600
N1219       N  0.79578100  0.75986689  0.82353316    -0.41400
N1220       N  0.52470127  0.87601956  0.83345857    -0.42800
H1221       H  0.94999097  0.79624224  0.80205734     0.13400
H1222       H  0.87170568  0.84021778  0.85281684     0.09900
H1223       H  0.96083123  0.91690627  0.81567638     0.10900
H1224       H  0.96801200  0.93871536  0.91844193     0.16700
C1225       C  0.68527279  0.62434511  0.84471109    -0.01500
C1226       C  0.65767233  0.58451053  0.84269361     0.07100
C1227       C  0.66460580  0.56124766  0.82438434    -0.07400
C1228       C  0.69770724  0.57691457  0.80778466     0.04600
C1229       C  0.72459723  0.61701530  0.80887967    -0.14700
C1230       C  0.71819475  0.64033918  0.82758937    -0.08000
C1231       C  0.61914707  0.56736236  0.85617004     0.05500
C1232       C  0.59641176  0.58269540  0.84936584    -0.09100
C1233       C  0.55810830  0.56526633  0.85801187     0.00500
C1234       C  0.54154853  0.53211088  0.87598805     0.00400
C1235       C  0.56430309  0.51523614  0.88036405    -0.12700
C1236       C  0.60265215  0.53298066  0.87165183     0.00800
C1237       C  0.53683097  0.57923465  0.84344816     0.40100
C1238       C  0.62475967  0.51577980  0.87946541     0.36800
C1239       C  0.68038359  0.64929931  0.86414632     0.36500
C1240       C  0.70188386  0.55144069  0.78836324     0.37200
N1241       N  0.52074080  0.59025495  0.83025385    -0.43500
N1242       N  0.64256727  0.50211044  0.88576774    -0.44000
N1243       N  0.70526129  0.53106455  0.77281615    -0.41400
N1244       N  0.67654612  0.66930379  0.87977469    -0.42800
H1245       H  0.73884185  0.67104526  0.82875434     0.13400
H1246       H  0.64317258  0.53089132  0.82207231     0.09900
H1247       H  0.60813594  0.60732539  0.83539543     0.10900
H1248       H  0.55240862  0.48858510  0.89208083     0.16700
C1249       C  0.92604641  0.53102707  0.85371581    -0.01500
C1250       C  0.93861053  0.56935742  0.86205228     0.07100
C1251       C  0.96777956  0.58684758  0.88206684    -0.07400
C1252       C  0.98708021  0.56851805  0.89146520     0.04600
C1253       C  0.97696714  0.53104787  0.88111294    -0.14700
C1254       C  0.94409772  0.51212522  0.86392217    -0.08000
C1255       C  0.92307867  0.59181709  0.84865012     0.05500
C1256       C  0.88326488  0.57621057  0.84789123    -0.09100
C1257       C  0.86714641  0.59192278  0.83057491     0.00500
C1258       C  0.89111920  0.62413022  0.81351969     0.00400
C1259       C  0.93095227  0.64217564  0.81670124    -0.12700
C1260       C  0.94703423  0.62661700  0.83413486     0.00800
C1261       C  0.82600474  0.57442292  0.83087939     0.40100
C1262       C  0.98824043  0.64660478  0.83582122     0.36800
C1263       C  0.89569115  0.51056966  0.83358479     0.36500
C1264       C  0.01876666  0.59018857  0.91031705     0.37200
N1265       N  0.79305527  0.56051139  0.83126095    -0.43500
N1266       N  0.52129014  0.66351630  0.83727239    -0.44000
N1267       N  0.04407849  0.60776871  0.92543927    -0.41400
N1268       N  0.87136461  0.49394940  0.81753070    -0.42800
H1269       H  0.93188983  0.48230341  0.85782031     0.13400
H1270       H  0.97667961  0.61573528  0.88952117     0.09900
H1271       H  0.86459048  0.55069473  0.86009887     0.10900
H1272       H  0.94983560  0.66763633  0.80451234     0.16700
C1273       C  0.88995880  0.83383138  0.66272518    -0.01500
C1274       C  0.92999345  0.85633627  0.65847695     0.07100
C1275       C  0.95282634  0.84214251  0.66827016    -0.07400
C1276       C  0.93680804  0.80710000  0.68281932     0.04600
C1277       C  0.89693251  0.78582322  0.68890342    -0.14700
C1278       C  0.87395887  0.79934880  0.67798806    -0.08000
C1279       C  0.94873432  0.89576400  0.64570029     0.05500
C1280       C  0.94181004  0.92351306  0.65768862    -0.09100
C1281       C  0.95932003  0.96131772  0.64733110     0.00500
C1282       C  0.98419302  0.97242616  0.62317563     0.00400
C1283       C  0.99351622  0.94490121  0.61324768    -0.12700
C1284       C  0.97529416  0.90700673  0.62335678     0.00800
C1285       C  0.95368087  0.98778953  0.66451996     0.40100
C1286       C  0.98350059  0.87987096  0.60969277     0.36800
C1287       C  0.86460353  0.84545561  0.65153616     0.36500
C1288       C  0.96256239  0.79481419  0.69199590     0.37200
N1289       N  0.94894554  0.00826379  0.67901697    -0.43500
N1290       N  0.99000598  0.85810097  0.59867836    -0.44000
N1291       N  0.98334159  0.78499826  0.69907371    -0.41400
N1292       N  0.84431204  0.85476479  0.64250516    -0.42800
H1293       H  0.84329728  0.78325148  0.68176053     0.13400
H1294       H  0.98361684  0.85912313  0.66527846     0.09900
H1295       H  0.92336428  0.91583367  0.67611366     0.10900
H1296       H  0.01426409  0.95261883  0.59638503     0.16700
C1297       C  0.58887283  0.55455016  0.66195777    -0.01500
C1298       C  0.62095267  0.56439465  0.64487796     0.07100
C1299       C  0.61554817  0.55318672  0.61663823    -0.07400
C1300       C  0.57890183  0.53469660  0.60469525     0.04600
C1301       C  0.54663075  0.52961079  0.62084372    -0.14700
C1302       C  0.55237908  0.53637876  0.65014773    -0.08000
C1303       C  0.65985441  0.58357252  0.65701551     0.05500
C1304       C  0.67426753  0.56068018  0.66605447    -0.09100
C1305       C  0.70796440  0.57664381  0.68175044     0.00500
C1306       C  0.72750366  0.61643294  0.68926857     0.00400
C1307       C  0.71427258  0.63965774  0.67821589    -0.12700
C1308       C  0.68094631  0.62362950  0.66211492     0.00800
C1309       C  0.72116054  0.55109994  0.68993504     0.40100
C1310       C  0.66882537  0.64889331  0.65135944     0.36800
C1311       C  0.59284194  0.56366540  0.69163224     0.36500
C1312       C  0.57588173  0.51768702  0.57727726     0.37200
N1313       N  0.73169035  0.53053966  0.69634017    -0.43500
N1314       N  0.65995409  0.66977953  0.64263389    -0.44000
N1315       N  0.57404630  0.50376976  0.55548665    -0.41400
N1316       N  0.59616440  0.57116184  0.71537005    -0.42800
H1317       H  0.52841632  0.52992535  0.66380705     0.13400
H1318       H  0.64003934  0.55794025  0.60406960     0.09900
H1319       H  0.65839752  0.52993034  0.66158689     0.10900
H1320       H  0.72915753  0.67030932  0.68292713     0.16700
C1321       C  0.92663668  0.62120102  0.64945522    -0.01500
C1322       C  0.91791900  0.58268024  0.65166443     0.07100
C1323       C  0.89080348  0.55851250  0.67169494    -0.07400
C1324       C  0.87380080  0.57261720  0.69028163     0.04600
C1325       C  0.88428011  0.61186047  0.68912405    -0.14700
C1326       C  0.91007966  0.63552121  0.66826017    -0.08000
C1327       C  0.94082581  0.56872433  0.63663323     0.05500
C1328       C  0.98016394  0.58800950  0.64142072    -0.09100
C1329       C  0.00282364  0.57339927  0.63159236     0.00500
C1330       C  0.98545969  0.53640569  0.61789976     0.00400
C1331       C  0.94620202  0.51944690  0.61081659    -0.12700
C1332       C  0.92407218  0.53503569  0.62007102     0.00800
C1333       C  0.04325964  0.59899983  0.63566706     0.40100
C1334       C  0.88411481  0.51570289  0.61265927     0.36800
C1335       C  0.95295621  0.64671800  0.62834319     0.36500
C1336       C  0.84803438  0.54692026  0.71162262     0.37200
N1337       N  0.57538711  0.62090665  0.63941320    -0.43500
N1338       N  0.85211543  0.50037480  0.60663492    -0.44000
N1339       N  0.82744502  0.52625111  0.72869299    -0.41400
N1340       N  0.47405952  0.66719268  0.61141270    -0.42800
H1341       H  0.91779005  0.66548266  0.66693747     0.13400
H1342       H  0.88442974  0.52905420  0.67381342     0.09900
H1343       H  0.99329701  0.61463105  0.65359990     0.10900
H1344       H  0.93204605  0.49239953  0.59925768     0.16700
C1345       C  0.97559191  0.97308643  0.53287062    -0.01500
C1346       C  0.49747781  0.00593403  0.51612565     0.07100
C1347       C  0.52005839  0.54094316  0.53013326    -0.07400
C1348       C  0.52266750  0.54400299  0.55951423     0.04600
C1349       C  0.50214915  0.51053897  0.57677627    -0.14700
C1350       C  0.97681114  0.97648039  0.56220231    -0.08000
C1351       C  0.49701728  0.00359213  0.48476441     0.05500
C1352       C  0.96194940  0.98717760  0.47081292    -0.09100
C1353       C  0.95944777  0.98232089  0.44151638     0.00500
C1354       C  0.49471921  0.49413155  0.42533975     0.00400
C1355       C  0.52994794  0.51425987  0.43994960    -0.12700
C1356       C  0.53172090  0.51768056  0.46928444     0.00800
C1357       C  0.92161125  0.96787986  0.43044451     0.40100
C1358       C  0.56781989  0.03393164  0.48165998     0.36800
C1359       C  0.95272807  0.93512707  0.52052971     0.36500
C1360       C  0.54875476  0.58204269  0.57041407     0.37200
N1361       N  0.89078059  0.95663959  0.42265086    -0.43500
N1362       N  0.59753024  0.04685130  0.49202311    -0.44000
N1363       N  0.57075699  0.61335454  0.57715629    -0.41400
N1364       N  0.93465588  0.90471492  0.51060113    -0.42800
H1365       H  0.95706197  0.95099672  0.57383036     0.13400
H1366       H  0.53613862  0.56667562  0.51748616     0.09900
H1367       H  0.93609056  0.97827974  0.48310302     0.10900
H1368       H  0.55662393  0.52537957  0.42833196     0.16700
C1369       C  0.96716374  0.97341078  0.03058303    -0.01500
C1370       C  0.99933996  0.00151942  0.01533857     0.07100
C1371       C  0.53364486  0.52772782  0.02996467    -0.07400
C1372       C  0.53650358  0.52295040  0.05874916     0.04600
C1373       C  0.50358697  0.49630743  0.07486027    -0.14700
C1374       C  0.96746648  0.97363946  0.06004056    -0.08000
C1375       C  0.99991022  0.00484258  0.98368333     0.05500
C1376       C  0.96877134  0.49990595  0.96885182    -0.09100
C1377       C  0.96701922  0.49925444  0.93938589     0.00500
C1378       C  0.50065166  0.51112062  0.92252497     0.00400
C1379       C  0.53333796  0.02198222  0.93842599    -0.12700
C1380       C  0.53314544  0.01571361  0.96728181     0.00800
C1381       C  0.92953336  0.48486466  0.92755422     0.40100
C1382       C  0.56733613  0.01872559  0.97874828     0.36800
C1383       C  0.93365849  0.94262341  0.01693775     0.36500
C1384       C  0.57457441  0.54533258  0.07014124     0.37200
N1385       N  0.89910765  0.47295235  0.91869170    -0.43500
N1386       N  0.59472939  0.02102405  0.98774823    -0.44000
N1387       N  0.60585948  0.56362991  0.07778601    -0.41400
N1388       N  0.90680175  0.91782630  0.00614082    -0.42800
H1389       H  0.94035868  0.95501473  0.06997851     0.13400
H1390       H  0.55807144  0.55117950  0.01933750     0.09900
H1391       H  0.94364496  0.49446572  0.98077520     0.10900
H1392       H  0.56091981  0.03580852  0.92856711     0.16700
C1393       C  0.54646277  0.95390492  0.34209589    -0.01500
C1394       C  0.56170685  0.93763527  0.35974413     0.07100
C1395       C  0.55303204  0.93466696  0.38847000    -0.07400
C1396       C  0.53066126  0.94892454  0.40013347     0.04600
C1397       C  0.51740398  0.96847981  0.38273422    -0.14700
C1398       C  0.52424478  0.96817826  0.35340532    -0.08000
C1399       C  0.58383335  0.92056432  0.34785245     0.05500
C1400       C  0.62013416  0.94479707  0.33591640    -0.09100
C1401       C  0.63867134  0.92957094  0.31989028     0.00500
C1402       C  0.62076554  0.88906374  0.31576378     0.00400
C1403       C  0.58568864  0.86498782  0.32964958    -0.12700
C1404       C  0.56710777  0.88032057  0.34527843     0.00800
C1405       C  0.67439662  0.95652050  0.30627583     0.40100
C1406       C  0.52935322  0.85425800  0.35647251     0.36800
C1407       C  0.55296249  0.95593736  0.31208323     0.36500
C1408       C  0.52030672  0.93958467  0.42930868     0.37200
N1409       N  0.70294836  0.97831119  0.29536287    -0.43500
N1410       N  0.49897693  0.83350401  0.36531194    -0.44000
N1411       N  0.51231788  0.93116564  0.45264491    -0.41400
N1412       N  0.55833230  0.95752697  0.28806424    -0.42800
H1413       H  0.51359421  0.98114611  0.33911513     0.13400
H1414       H  0.56323124  0.92026109  0.40181627     0.09900
H1415       H  0.63305232  0.97583069  0.33786747     0.10900
H1416       H  0.57151838  0.83392768  0.32703587     0.16700
C1417       C  0.82158553  0.92274125  0.33677182    -0.01500
C1418       C  0.84624624  0.90780390  0.33476687     0.07100
C1419       C  0.83509935  0.87448683  0.31856494    -0.07400
C1420       C  0.80094368  0.85714970  0.30328542     0.04600
C1421       C  0.77692051  0.87302836  0.30432370    -0.14700
C1422       C  0.78747288  0.90552359  0.32147889    -0.08000
C1423       C  0.88473529  0.92783135  0.34801135     0.05500
C1424       C  0.89372602  0.90880406  0.36811175    -0.09100
C1425       C  0.92917710  0.92755914  0.38191477     0.00500
C1426       C  0.95645328  0.96736496  0.37662522     0.00400
C1427       C  0.94829921  0.98401206  0.35362302    -0.12700
C1428       C  0.91307968  0.96519171  0.33992865     0.00800
C1429       C  0.93493815  0.90509247  0.40245249     0.40100
C1430       C  0.90722668  0.98449424  0.31686130     0.36800
C1431       C  0.83094481  0.95600727  0.35414928     0.36500
C1432       C  0.79293702  0.82500010  0.28506114     0.37200
N1433       N  0.93737233  0.88550658  0.41879967    -0.43500
N1434       N  0.90258271  0.50111182  0.30039198    -0.44000
N1435       N  0.78662571  0.79936301  0.27035689    -0.41400
N1436       N  0.83862960  0.98278502  0.36798074    -0.42800
H1437       H  0.76929025  0.91790240  0.32260030     0.13400
H1438       H  0.85400039  0.86297846  0.31687739     0.09900
H1439       H  0.87255163  0.87925776  0.37346521     0.10900
H1440       H  0.97083591  0.51204131  0.34570371     0.16700
C1441       C  0.58376347  0.68056992  0.35163860    -0.01500
C1442       C  0.57533400  0.64449808  0.34041116     0.07100
C1443       C  0.58105467  0.64141344  0.31158867    -0.07400
C1444       C  0.59570641  0.67358269  0.29410211     0.04600
C1445       C  0.60450046  0.70980829  0.30534836    -0.14700
C1446       C  0.59788817  0.71279236  0.33403282    -0.08000
C1447       C  0.55932074  0.60911390  0.35787899     0.05500
C1448       C  0.52409161  0.59544949  0.37152238    -0.09100
C1449       C  0.50544004  0.55950292  0.38487009     0.00500
C1450       C  0.52082408  0.53460431  0.38307926     0.00400
C1451       C  0.55908540  0.55172802  0.37292814    -0.12700
C1452       C  0.57768443  0.58775099  0.35983863     0.00800
C1453       C  0.96928214  0.54877417  0.39814056     0.40100
C1454       C  0.61573427  0.60219745  0.34850134     0.36800
C1455       C  0.57948331  0.68544097  0.38129403     0.36500
C1456       C  0.60035031  0.66827827  0.26451464     0.37200
N1457       N  0.94051971  0.54226794  0.40817606    -0.43500
N1458       N  0.64619312  0.61372237  0.33938413    -0.44000
N1459       N  0.60400335  0.66376021  0.24086641    -0.41400
N1460       N  0.57607200  0.68915826  0.40511105    -0.42800
H1461       H  0.60473843  0.74052367  0.34281954     0.13400
H1462       H  0.57384210  0.61361588  0.30269036     0.09900
H1463       H  0.51034780  0.61243627  0.37088642     0.10900
H1464       H  0.57499245  0.53710352  0.37470930     0.16700
C1465       C  0.61269537  0.93728636  0.17005035    -0.01500
C1466       C  0.57333345  0.91703339  0.16375855     0.07100
C1467       C  0.55038780  0.87900049  0.17301547    -0.07400
C1468       C  0.56569742  0.86124906  0.18902435     0.04600
C1469       C  0.60519518  0.88183885  0.19615556    -0.14700
C1470       C  0.62819658  0.91969611  0.18601223    -0.08000
C1471       C  0.55482918  0.93567871  0.14935526     0.05500
C1472       C  0.55622653  0.93827440  0.12004150    -0.09100
C1473       C  0.53869746  0.95540379  0.10570199     0.00500
C1474       C  0.52056369  0.97254934  0.12113531     0.00400
C1475       C  0.51794847  0.96754121  0.15077634    -0.12700
C1476       C  0.53451987  0.94946766  0.16467907     0.00800
C1477       C  0.53849945  0.95199686  0.07550011     0.40100
C1478       C  0.53108598  0.94623174  0.19490267     0.36800
C1479       C  0.63781010  0.97654275  0.16113746     0.36500
C1480       C  0.53949471  0.82243101  0.19848684     0.37200
N1481       N  0.53846989  0.94811667  0.05134834    -0.43500
N1482       N  0.52826696  0.94351669  0.21910959    -0.44000
N1483       N  0.51836460  0.79134684  0.20605044    -0.41400
N1484       N  0.65878509  0.00799084  0.15426587    -0.42800
H1485       H  0.65842469  0.93611834  0.19099998     0.13400
H1486       H  0.52005403  0.86341618  0.16825981     0.09900
H1487       H  0.57051054  0.92600419  0.10822408     0.10900
H1488       H  0.50389233  0.97926405  0.16345614     0.16700
C1489       C  0.90977198  0.97440007  0.15141572    -0.01500
C1490       C  0.88394795  0.93534771  0.14560991     0.07100
C1491       C  0.89638903  0.91464160  0.12939562    -0.07400
C1492       C  0.93372898  0.93247155  0.11831561     0.04600
C1493       C  0.95956023  0.97319224  0.12170059    -0.14700
C1494       C  0.94685096  0.99246496  0.14019806    -0.08000
C1495       C  0.84568856  0.91469556  0.15947140     0.05500
C1496       C  0.81787110  0.92412934  0.15290244    -0.09100
C1497       C  0.78297205  0.90776862  0.16780486     0.00500
C1498       C  0.77551131  0.88126154  0.18958520     0.00400
C1499       C  0.80312078  0.87115555  0.19536171    -0.12700
C1500       C  0.83793450  0.88777053  0.18079756     0.00800
C1501       C  0.75538883  0.91839583  0.16017744     0.40100
C1502       C  0.86629108  0.87859627  0.18936007     0.36800
C1503       C  0.89965737  0.99609323  0.17040621     0.36500
C1504       C  0.94426744  0.90751138  0.10381997     0.37200
N1505       N  0.73325100  0.92687460  0.15402617    -0.43500
N1506       N  0.88917015  0.87149758  0.19622527    -0.44000
N1507       N  0.95184240  0.88681898  0.09231055    -0.41400
N1508       N  0.89160141  0.01341817  0.18567627    -0.42800
H1509       H  0.96585387  0.02142906  0.14763377     0.13400
H1510       H  0.87703381  0.88395285  0.12606980     0.09900
H1511       H  0.82381003  0.94489465  0.13647900     0.10900
H1512       H  0.79832089  0.85138580  0.21229393     0.16700
C1513       C  0.52418264  0.59885001  0.11923346    -0.01500
C1514       C  0.55587518  0.61593168  0.13716637     0.07100
C1515       C  0.57408463  0.59571457  0.14362760    -0.07400
C1516       C  0.56053434  0.55819106  0.13377508     0.04600
C1517       C  0.52593650  0.53856796  0.11770166    -0.14700
C1518       C  0.51047259  0.56134281  0.10896532    -0.08000
C1519       C  0.56972418  0.65382393  0.15114748     0.05500
C1520       C  0.54652190  0.65668013  0.17186943    -0.09100
C1521       C  0.56120874  0.68842835  0.19019816     0.00500
C1522       C  0.60011201  0.71843034  0.18779649     0.00400
C1523       C  0.62246198  0.71652009  0.16570466    -0.12700
C1524       C  0.60767871  0.68458066  0.14755737     0.00800
C1525       C  0.53633882  0.68741933  0.21256141     0.40100
C1526       C  0.63238181  0.68325043  0.12604282     0.36800
C1527       C  0.50467544  0.61884583  0.11169285     0.36500
C1528       C  0.58599846  0.54397081  0.13876302     0.37200
N1529       N  0.51633049  0.68636294  0.23050677    -0.43500
N1530       N  0.65215725  0.68206637  0.10884461    -0.44000
N1531       N  0.60762836  0.53409053  0.14286710    -0.41400
N1532       N  0.48887416  0.63478230  0.10580553    -0.42800
H1533       H  0.48553938  0.54852754  0.09552596     0.13400
H1534       H  0.59938720  0.60958046  0.15674389     0.09900
H1535       H  0.51747965  0.63277413  0.17491303     0.10900
H1536       H  0.65207914  0.73937725  0.16318546     0.16700
loop_ 
_geom_bond_atom_site_label_1 
_geom_bond_atom_site_label_2 
_geom_bond_distance 
_geom_bond_site_symmetry_2 
_ccdc_geom_bond_type 
Fe1          O17   2.066       .  S
Fe1           O7   2.066       .  S
Fe1          O14   2.050       .  S
Fe1           O6   2.066       .  S
Fe1          O12   1.964       .  S
Fe2           O5   2.079       .  S
Fe2           O9   2.087       .  S
Fe2          O13   2.080       .  S
Fe2          O18   2.087       .  S
Fe2          O12   1.971       .  S
Fe3          O21   2.060       .  S
Fe3           O8   2.060       .  S
Fe3          O15   2.073       .  S
Fe3           O4   2.070       .  S
Fe3          O12   1.961       .  S
O4           C11   1.271       .  A
O5           C19   1.271       .  A
O6           C11   1.272       .  A
O7           C10   1.266       .  A
O8           C20   1.269       .  A
O9           C22   1.277       .  A
C10          O15   1.268       .  A
C10         C293   1.481       .  S
C11         C370   1.488       .  S
O13          C16   1.269       .  A
O14          C16   1.265       .  A
C16         C346   1.488       .  S
O17          C22   1.274       .  A
O18          C20   1.276       .  A
C19          O21   1.269       .  A
C19         C250   1.499       .  S
C20         C317   1.500       .  S
C22         C269   1.488       .  S
C23         C221   1.581       .  S
C23         C365   1.579   1_565  S
C23         C706   1.570       .  S
C23        C1493   1.589   1_455  S
C24         C202   1.568       .  S
C24         C298   1.584   1_665  S
C24         C629   1.580   1_655  S
C24        C1426   1.575       .  S
Fe25         O41   2.077       .  S
Fe25         O31   2.072       .  S
Fe25         O38   2.074       .  S
Fe25         O30   2.076       .  S
Fe25         O36   1.981       .  S
Fe26         O29   2.058       .  S
Fe26         O33   2.039       .  S
Fe26         O37   2.055       .  S
Fe26         O42   2.052       .  S
Fe26         O36   1.974       .  S
Fe27         O45   2.072       .  S
Fe27         O32   2.071       .  S
Fe27         O39   2.061       .  S
Fe27         O28   2.068       .  S
Fe27         O36   1.973       .  S
O28          C35   1.269       .  A
O29          C43   1.266       .  A
O30          C35   1.271       .  A
O31          C34   1.271       .  A
O32          C44   1.270       .  A
O33          C46   1.263       .  A
C34          O39   1.270       .  A
C34          C53   1.493       .  S
C35         C125   1.503       .  S
O37          C40   1.268       .  A
O38          C40   1.273       .  A
C40         C154   1.492       .  S
O41          C46   1.269       .  A
O42          C44   1.265       .  A
C43          O45   1.271       .  A
C43         C106   1.494       .  S
C44         C173   1.483       .  S
C46          C77   1.484       .  S
C47          C82   1.579   1_655  S
C47         C226   1.585       .  S
C47        C1210   1.579   1_545  S
C47         C869   1.569       .  S
C48         C149   1.564       .  S
C48         C197   1.575       .  S
C48        C1282   1.582   1_445  S
C48         C946   1.570   1_455  S
C49          C50   1.406       .  A
C49          C54   1.398       .  A
C49          C63   1.444       .  S
C50          C55   1.481       .  S
C50          C51   1.401       .  A
C51          C52   1.403       .  A
C51          H70   1.085       .  S
C52          C53   1.419       .  A
C52          C64   1.444       .  S
C53          C54   1.410       .  A
C54          H69   1.084       .  S
C55          C56   1.392       .  A
C55          C60   1.401       .  A
C56          C57   1.397       .  A
C56          H71   1.086       .  S
C57          C58   1.434       .  A
C57          C61   1.443       .  S
C58        C1199   1.579       .  S
C58          C59   1.425       .  A
C59          C60   1.404       .  A
C59          H72   1.078       .  S
C60          C62   1.444       .  S
C61         N833   1.157       .  T
C62          N66   1.157       .  T
C63         N836   1.157       .  T
C64          N67   1.157       .  T
N65         C829   1.157   1_455  T
N68         C831   1.157   1_455  T
C73          C74   1.414       .  A
C73          C78   1.405       .  A
C73          C87   1.444       .  S
C74          C79   1.486       .  S
C74          C75   1.399       .  A
C75          C76   1.393       .  A
C75          H94   1.085       .  S
C76          C77   1.418       .  A
C76          C88   1.445       .  S
C77          C78   1.406       .  A
C78          H93   1.084       .  S
C79          C80   1.394       .  A
C79          C84   1.406       .  A
C80          C81   1.399       .  A
C80          H95   1.086       .  S
C81          C82   1.437       .  A
C81          C85   1.441       .  S
C82          C83   1.420       .  A
C83          C84   1.399       .  A
C83          H96   1.085   1_545  S
C84          C86   1.444       .  S
C85          N89   1.157       .  T
C86          N90   1.157       .  T
C87          N92   1.157       .  T
C88          N91   1.157       .  T
C97          C98   1.411       .  A
C97         C102   1.397       .  A
C97         C111   1.446       .  S
C98         C103   1.497       .  S
C98          C99   1.403       .  A
C99         C100   1.405       .  A
C99         H118   1.084       .  S
C100        C101   1.430       .  A
C100        C112   1.445       .  S
C101        C815   1.569       .  S
C101        C102   1.417       .  A
C102        H117   1.078   1_545  S
C103        C104   1.405       .  A
C103        C108   1.414       .  A
C104        C105   1.403       .  A
C104        H119   1.085       .  S
C105        C106   1.419       .  A
C105        C109   1.445       .  S
C106        C107   1.406       .  A
C107        C108   1.399       .  A
C107        H120   1.084       .  S
C108        C110   1.443       .  S
C109        N113   1.158       .  T
C110        N882   1.157       .  T
C111        N116   1.157   1_545  T
C112        N115   1.157       .  T
N114        C878   1.157   1_455  T
C121        C122   1.413       .  A
C121        C126   1.405       .  A
C121        C135   1.444       .  S
C122        C127   1.499       .  S
C122        C123   1.403       .  A
C123        C124   1.403       .  A
C123        H142   1.084       .  S
C124        C125   1.421       .  A
C124        C136   1.444       .  S
C125        C126   1.410       .  A
C126        H141   1.084       .  S
C127        C128   1.400       .  A
C127        C132   1.408       .  A
C128        C129   1.404       .  A
C128        H143   1.086       .  S
C129        C130   1.436       .  A
C129        C133   1.445       .  S
C130       C1200   1.581       .  S
C130        C131   1.418       .  A
C131        C132   1.402       .  A
C131        H144   1.082       .  S
C132        C134   1.443       .  S
C133        N137   1.158       .  T
C134        N138   1.157       .  T
C135        N140   1.157       .  T
C136        N139   1.157       .  T
C145        C146   1.402       .  A
C145        C150   1.396       .  A
C145        C159   1.445       .  S
C146        C151   1.478       .  S
C146        C147   1.395       .  A
C147        C148   1.404       .  A
C147        H166   1.085       .  S
C148        C149   1.434       .  A
C148        C160   1.443       .  S
C149        C150   1.417       .  A
C150        H165   1.080       .  S
C151        C152   1.397       .  A
C151        C156   1.407       .  A
C152        C153   1.399       .  A
C152        H167   1.085       .  S
C153        C154   1.423       .  A
C153        C157   1.445       .  S
C154        C155   1.409       .  A
C155        C156   1.400       .  A
C155        H168   1.084       .  S
C156        C158   1.443       .  S
C157        N161   1.157       .  T
C158        N162   1.157       .  T
C159        N164   1.157       .  T
C160        N163   1.158       .  T
C169        C170   1.411       .  A
C169        C174   1.401       .  A
C169        C183   1.443       .  S
C170        C175   1.485       .  S
C170        C171   1.402       .  A
C171        C172   1.399       .  A
C171        H190   1.085       .  S
C172        C173   1.418       .  A
C172        C184   1.446       .  S
C173        C174   1.405       .  A
C174        H189   1.085       .  S
C175        C176   1.395       .  A
C175        C180   1.404       .  A
C176        C177   1.399       .  A
C176        H191   1.086       .  S
C177        C178   1.436       .  A
C177        C181   1.441       .  S
C178        C816   1.570       .  S
C178        C179   1.421       .  A
C179        C180   1.401       .  A
C179        H192   1.084   1_545  S
C180        C182   1.443       .  S
C181        N953   1.157       .  T
C182        N186   1.157       .  T
C183        N956   1.157       .  T
C184        N187   1.158       .  T
N185        C949   1.157       .  T
N188        C951   1.157       .  T
C193        C198   1.400       .  A
C193        C962   1.407       .  A
C193        C207   1.445       .  S
C194        C199   1.495       .  S
C194        C961   1.407       .  A
C194        C579   1.398   1_655  A
C195        C196   1.403       .  A
C195        C578   1.398   1_455  A
C195        H214   1.085       .  S
C196        C197   1.432       .  A
C196        C208   1.441       .  S
C197       C1350   1.420   1_445  A
C198       C1349   1.420       .  A
C198        H213   1.079       .  S
C199        C968   1.398       .  A
C199        C588   1.407   1_655  A
C200        C201   1.403       .  A
C200        C967   1.398       .  A
C200        H215   1.086       .  S
C201       C1354   1.436       .  A
C201        C205   1.442       .  S
C202        C203   1.419   1_665  A
C202       C1353   1.436       .  A
C203        C204   1.400       .  A
C203        H216   1.084       .  S
C204        C583   1.407   1_455  A
C204        C590   1.444       .  S
C205        N209   1.158       .  T
C206        C588   1.444       .  S
C206        N210   1.157       .  T
C207        N212   1.157       .  T
C208        N211   1.157       .  T
C217        C218   1.414       .  A
C217        C222   1.404       .  A
C217        C231   1.445       .  S
C218        C223   1.513   1_554  S
C218       C1371   1.402       .  A
C219        C220   1.401       .  A
C219       C1370   1.404   1_455  A
C219        H238   1.082       .  S
C220        C221   1.432   1_545  A
C220        C232   1.444       .  S
C221       C1374   1.419   1_455  A
C222       C1373   1.420       .  A
C222        H237   1.073       .  S
C223        C608   1.405       .  A
C223        C996   1.414       .  A
C224        C225   1.404       .  A
C224        C607   1.406   1_565  A
C224        H239   1.081       .  S
C225        C994   1.431   1_565  A
C225        C229   1.445       .  S
C226        C993   1.431   1_545  A
C226        C611   1.419   1_655  A
C227        C228   1.399       .  A
C227        C610   1.418       .  A
C227        H240   1.072       .  S
C228        C991   1.414       .  A
C228        C230   1.446       .  S
C229        N233   1.157       .  T
C230        N234   1.157       .  T
C231        N236   1.157       .  T
C232        N235   1.157       .  T
C241        C242   1.402       .  A
C241        C246   1.398       .  A
C241        C255   1.445       .  S
C242        C247   1.488       .  S
C242        C243   1.397       .  A
C243        C244   1.408       .  A
C243        H262   1.085       .  S
C244        C245   1.437       .  A
C244        C256   1.443       .  S
C245        C408   1.581   1_455  S
C245        C246   1.421       .  A
C246        H261   1.084       .  S
C247        C248   1.404       .  A
C247        C252   1.406       .  A
C248        C249   1.407       .  A
C248        H263   1.085       .  S
C249        C250   1.421       .  A
C249        C253   1.444       .  S
C250        C251   1.410       .  A
C251        C252   1.398       .  A
C251        H264   1.084       .  S
C252        C254   1.444       .  S
C253        N257   1.158       .  T
C254        N258   1.157   1_455  T
C255        N260   1.157       .  T
C256        N259   1.158       .  T
C265        C266   1.413       .  A
C265        C270   1.402       .  A
C265        C279   1.444       .  S
C266        C271   1.491       .  S
C266        C267   1.402       .  A
C267        C268   1.403       .  A
C267        H286   1.085       .  S
C268        C269   1.418       .  A
C268        C280   1.444       .  S
C269        C270   1.406       .  A
C270        H285   1.085       .  S
C271        C272   1.400       .  A
C271        C276   1.405       .  A
C272        C273   1.407       .  A
C272        H287   1.085       .  S
C273        C274   1.431       .  A
C273        C277   1.442       .  S
C274       C1176   1.575       .  S
C274        C275   1.420       .  A
C275        C276   1.397       .  A
C275        H672   1.079       .  S
C276        C278   1.445       .  S
C277        N281   1.157       .  T
C278        N666   1.157       .  T
C279        N284   1.157       .  T
C280        N283   1.157       .  T
N282        C662   1.157   1_545  T
H288        C659   1.079   1_545  S
C289        C290   1.413       .  A
C289        C294   1.405       .  A
C289        C303   1.443       .  S
C290        C295   1.492       .  S
C290        C291   1.403       .  A
C291        C292   1.399       .  A
C291        H310   1.085       .  S
C292        C293   1.415       .  A
C292        C304   1.446       .  S
C293        C294   1.403       .  A
C294        H309   1.084       .  S
C295        C296   1.398       .  A
C295        C300   1.406       .  A
C296        C297   1.403       .  A
C296        H311   1.085       .  S
C297        C298   1.431       .  A
C297       C1069   1.441   1_455  S
C298        C299   1.421       .  A
C299        C300   1.400       .  A
C299        H312   1.081       .  S
C300        C302   1.444       .  S
C301       C1065   1.441       .  S
C301        N305   1.157       .  T
C302        N306   1.157       .  T
C303        N308   1.157       .  T
C304        N307   1.157       .  T
C313        C314   1.409       .  A
C313        C318   1.404       .  A
C313        C327   1.443       .  S
C314        C319   1.488       .  S
C314        C315   1.399       .  A
C315        C316   1.402       .  A
C315        H334   1.085       .  S
C316        C317   1.423       .  A
C316        C328   1.444       .  S
C317        C318   1.409       .  A
C318        H333   1.084       .  S
C319        C320   1.399       .  A
C319        C324   1.403       .  A
C320        C321   1.409       .  A
C320        H335   1.085       .  S
C321        C322   1.435       .  A
C321        C325   1.442       .  S
C322        C407   1.570       .  S
C322        C323   1.422       .  A
C323        C324   1.397       .  A
C323        H336   1.084       .  S
C324        C326   1.444       .  S
C325        N329   1.158       .  T
C326        N330   1.157       .  T
C327        N332   1.157       .  T
C328        N331   1.157       .  T
C337        C338   1.401       .  A
C337        C342   1.397       .  A
C337        C351   1.446       .  S
C338        C343   1.488       .  S
C338        C339   1.399       .  A
C339        C340   1.405       .  A
C339        H358   1.085       .  S
C340        C341   1.435       .  A
C340        C352   1.446       .  S
C341       C1175   1.591       .  S
C341        C342   1.425       .  A
C342        H357   1.076       .  S
C343        C344   1.407       .  A
C343        C348   1.407       .  A
C344        C345   1.407       .  A
C344        H359   1.084       .  S
C345        C346   1.414       .  A
C345        C349   1.443       .  S
C346        C347   1.409       .  A
C347        C348   1.396       .  A
C347        H360   1.085       .  S
C348        C350   1.445       .  S
C349        N353   1.157       .  T
C350        N354   1.157       .  T
C351        N356   1.157       .  T
C352        N355   1.157       .  T
C361        C362   1.403       .  A
C361        C366   1.402       .  A
C361        C375   1.443       .  S
C362        C367   1.481       .  S
C362        C363   1.392       .  A
C363        C364   1.396       .  A
C363        H382   1.086       .  S
C364        C365   1.436       .  A
C364        C376   1.440       .  S
C365        C366   1.423       .  A
C366        H381   1.085   1_455  S
C367        C368   1.399       .  A
C367        C372   1.409       .  A
C368        C369   1.399       .  A
C368        H383   1.085       .  S
C369        C370   1.421       .  A
C369        C373   1.445       .  S
C370        C371   1.407       .  A
C371        C372   1.401       .  A
C371        H384   1.084       .  S
C372        C374   1.444       .  S
C373        N377   1.157       .  T
C374        N378   1.157       .  T
C375        N380   1.157   1_455  T
C376        N379   1.156       .  T
Fe385       O401   2.063       .  S
Fe385       O391   2.064       .  S
Fe385       O398   2.050       .  S
Fe385       O390   2.060       .  S
Fe385       O396   1.962       .  S
Fe386       O389   2.074       .  S
Fe386       O393   2.086       .  S
Fe386       O397   2.077       .  S
Fe386       O402   2.084       .  S
Fe386       O396   1.967       .  S
Fe387       O405   2.065       .  S
Fe387       O392   2.059       .  S
Fe387       O399   2.071       .  S
Fe387       O388   2.076       .  S
Fe387       O396   1.960       .  S
O388        C395   1.272       .  A
O389        C403   1.270       .  A
O390        C395   1.272       .  A
O391        C394   1.266       .  A
O392        C404   1.269       .  A
O393        C406   1.277       .  A
C394        O399   1.268       .  A
C394        C677   1.479       .  S
C395        C754   1.490       .  S
O397        C400   1.269       .  A
O398        C400   1.265       .  A
C400        C730   1.487       .  S
O401        C406   1.274       .  A
O402        C404   1.275       .  A
C403        O405   1.270       .  A
C403        C634   1.494       .  S
C404        C701   1.499       .  S
C406        C653   1.486       .  S
C407        C605   1.581       .  S
C407       C1109   1.591   1_455  S
C407        C749   1.579       .  S
C408        C586   1.569       .  S
C408       C1042   1.575       .  S
C408        C682   1.582   1_655  S
Fe409       O425   2.085       .  S
Fe409       O415   2.066       .  S
Fe409       O422   2.069       .  S
Fe409       O414   2.082       .  S
Fe409       O420   1.969       .  S
Fe410       O413   2.063       .  S
Fe410       O417   2.040       .  S
Fe410       O421   2.067       .  S
Fe410       O426   2.049       .  S
Fe410       O420   1.967       .  S
Fe411       O429   2.067       .  S
Fe411       O416   2.075       .  S
Fe411       O423   2.070       .  S
Fe411       O412   2.068       .  S
Fe411       O420   1.965       .  S
O412        C419   1.268       .  A
O413        C427   1.268       .  A
O414        C419   1.272       .  A
O415        C418   1.271       .  A
O416        C428   1.272       .  A
O417        C430   1.263       .  A
C418        O423   1.273       .  A
C418        C437   1.495       .  S
C419        C509   1.501       .  S
O421        C424   1.270       .  A
O422        C424   1.273       .  A
C424        C538   1.494       .  S
O425        C430   1.271       .  A
O426        C428   1.266       .  A
C427        O429   1.269       .  A
C427        C490   1.489       .  S
C428        C557   1.477       .  S
C430        C461   1.479       .  S
C431        C826   1.579       .  S
C431        C466   1.582   1_655  S
C431       C1253   1.570       .  S
C431        C610   1.586   1_655  S
C432        C898   1.581   1_455  S
C432        C533   1.566       .  S
C432       C1330   1.569   1_455  S
C432        C581   1.575       .  S
C433        C434   1.406       .  A
C433        C438   1.398       .  A
C433        C447   1.444       .  S
C434        C439   1.482       .  S
C434        C435   1.401       .  A
C435        C436   1.403       .  A
C435        H454   1.085       .  S
C436        C437   1.421       .  A
C436        C448   1.444       .  S
C437        C438   1.411       .  A
C438        H453   1.084       .  S
C439        C440   1.392       .  A
C439        C444   1.401       .  A
C440        C441   1.397       .  A
C440        H455   1.086       .  S
C441        C442   1.434       .  A
C441        C445   1.443       .  S
C442        C815   1.579   1_565  S
C442        C443   1.425       .  A
C443        C444   1.404       .  A
C443        H456   1.079       .  S
C444        C446   1.444       .  S
C445       N1217   1.157   1_565  T
C446        N450   1.157       .  T
C447       N1220   1.157       .  T
C448        N451   1.157       .  T
N449       C1213   1.157   1_445  T
N452       C1215   1.157   1_455  T
C457        C458   1.415       .  A
C457        C462   1.404       .  A
C457        C471   1.444       .  S
C458        C463   1.489       .  S
C458        C459   1.401       .  A
C459        C460   1.396       .  A
C459        H478   1.085       .  S
C460        C461   1.415       .  A
C460        C472   1.446       .  S
C461        C462   1.403       .  A
C462        H477   1.085       .  S
C463        C464   1.394       .  A
C463        C468   1.406       .  A
C464        C465   1.399       .  A
C464        H479   1.086       .  S
C465        C466   1.437       .  A
C465        C469   1.440       .  S
C466        C467   1.421       .  A
C467        C468   1.401       .  A
C467        H480   1.085       .  S
C468        C470   1.444       .  S
C469        N473   1.157       .  T
C470        N474   1.157       .  T
C471        N476   1.157       .  T
C472        N475   1.157       .  T
C481        C482   1.411       .  A
C481        C486   1.397       .  A
C481        C495   1.446       .  S
C482        C487   1.497       .  S
C482        C483   1.403       .  A
C483        C484   1.406       .  A
C483        H502   1.084       .  S
C484        C485   1.431       .  A
C484        C496   1.444       .  S
C485       C1199   1.570       .  S
C485        C486   1.417       .  A
C486        H501   1.078       .  S
C487        C488   1.406       .  A
C487        C492   1.415       .  A
C488        C489   1.402       .  A
C488        H503   1.085       .  S
C489        C490   1.416       .  A
C489        C493   1.445       .  S
C490        C491   1.404       .  A
C491        C492   1.400       .  A
C491        H504   1.085       .  S
C492        C494   1.443       .  S
C493        N497   1.158       .  T
C494       N1266   1.157       .  T
C495        N500   1.157       .  T
C496        N499   1.157       .  T
N498       C1262   1.157   1_455  T
C505        C506   1.413       .  A
C505        C510   1.405       .  A
C505        C519   1.444       .  S
C506        C511   1.501       .  S
C506        C507   1.405       .  A
C507        C508   1.404       .  A
C507        H526   1.084       .  S
C508        C509   1.420       .  A
C508        C520   1.444       .  S
C509        C510   1.409       .  A
C510        H525   1.084       .  S
C511        C512   1.400       .  A
C511        C516   1.408       .  A
C512        C513   1.405       .  A
C512        H527   1.086       .  S
C513        C514   1.436       .  A
C513        C517   1.444       .  S
C514        C816   1.582   1_565  S
C514        C515   1.419       .  A
C515        C516   1.402       .  A
C515        H528   1.082       .  S
C516        C518   1.443       .  S
C517        N521   1.158   1_565  T
C518        N522   1.157       .  T
C519        N524   1.157       .  T
C520        N523   1.157       .  T
C529        C530   1.403       .  A
C529        C534   1.398       .  A
C529        C543   1.445       .  S
C530        C535   1.481       .  S
C530        C531   1.396       .  A
C531        C532   1.405       .  A
C531        H550   1.085       .  S
C532        C533   1.434       .  A
C532        C544   1.443       .  S
C533        C534   1.417       .  A
C534        H549   1.080       .  S
C535        C536   1.398       .  A
C535        C540   1.408       .  A
C536        C537   1.401       .  A
C536        H551   1.085       .  S
C537        C538   1.422       .  A
C537        C541   1.445       .  S
C538        C539   1.408       .  A
C539        C540   1.400       .  A
C539        H552   1.084       .  S
C540        C542   1.443       .  S
C541        N545   1.157       .  T
C542        N546   1.157       .  T
C543        N548   1.157       .  T
C544        N547   1.158       .  T
C553        C554   1.411       .  A
C553        C558   1.399       .  A
C553        C567   1.443       .  S
C554        C559   1.485       .  S
C554        C555   1.403       .  A
C555        C556   1.399       .  A
C555        H574   1.085       .  S
C556        C557   1.415       .  A
C556        C568   1.445       .  S
C557        C558   1.403       .  A
C558        H573   1.085       .  S
C559        C560   1.395       .  A
C559        C564   1.404       .  A
C560        C561   1.398       .  A
C560        H575   1.086       .  S
C561        C562   1.435       .  A
C561        C565   1.439       .  S
C562       C1200   1.569       .  S
C562        C563   1.421       .  A
C563        C564   1.401       .  A
C563        H576   1.084       .  S
C564        C566   1.443       .  S
C565       N1337   1.157       .  T
C566        N570   1.157       .  T
C567       N1340   1.157       .  T
C568        N571   1.158       .  T
N569       C1333   1.157       .  T
N572       C1335   1.157       .  T
C577       C1346   1.407   1_565  A
C577        C582   1.400       .  A
C577        C591   1.445       .  S
C578        C583   1.494       .  S
C578       C1345   1.407   1_545  A
C579        C580   1.403       .  A
C579        H598   1.085       .  S
C580        C581   1.432       .  A
C580        C592   1.441       .  S
C581        C966   1.420   1_455  A
C582        C965   1.420   1_565  A
C582        H597   1.079       .  S
C583       C1352   1.398   1_545  A
C584       C1351   1.398   1_565  A
C584        C585   1.403       .  A
C584        H599   1.086       .  S
C585        C970   1.436       .  A
C585        C589   1.442       .  S
C586        C969   1.436       .  A
C586        C587   1.420   1_655  A
C587        C588   1.400       .  A
C587        H600   1.084       .  S
C589        N593   1.158       .  T
C590        N594   1.157       .  T
C591        N596   1.157       .  T
C592        N595   1.157       .  T
C601        C602   1.414   1_565  A
C601        C606   1.402       .  A
C601        C615   1.446       .  S
C602        C607   1.513   1_554  S
C602        C987   1.404       .  A
C603        C986   1.403       .  A
C603        C604   1.401       .  A
C603        H622   1.083       .  S
C604        C605   1.433       .  A
C604        C616   1.444       .  S
C605        C990   1.420   1_455  A
C606        C989   1.419       .  A
C606        H621   1.072       .  S
C607       C1380   1.414       .  A
C608        C609   1.404       .  A
C608        H623   1.083       .  S
C609       C1378   1.432       .  A
C609        C613   1.444       .  S
C610       C1377   1.432   1_455  A
C611        C612   1.399       .  A
C611        H624   1.068       .  S
C612       C1375   1.414   1_455  A
C612        C614   1.447       .  S
C613        N617   1.157       .  T
C614        N618   1.158       .  T
C615        N620   1.158       .  T
C616        N619   1.157       .  T
C625        C626   1.403       .  A
C625        C630   1.397       .  A
C625        C639   1.445       .  S
C626        C631   1.489       .  S
C626        C627   1.398       .  A
C627        C628   1.408       .  A
C627        H646   1.085       .  S
C628        C629   1.437       .  A
C628        C640   1.443       .  S
C629        C630   1.420       .  A
C630        H645   1.084       .  S
C631        C632   1.404       .  A
C631        C636   1.407       .  A
C632        C633   1.405       .  A
C632        H647   1.085       .  S
C633        C634   1.420       .  A
C633        C637   1.444       .  S
C634        C635   1.409       .  A
C635        C636   1.400       .  A
C635        H648   1.084       .  S
C636        C638   1.444       .  S
C637        N641   1.158       .  T
C638        N642   1.157       .  T
C639        N644   1.157       .  T
C640        N643   1.158       .  T
C649        C650   1.412       .  A
C649        C654   1.401       .  A
C649        C663   1.444       .  S
C650        C655   1.489       .  S
C650        C651   1.402       .  A
C651        C652   1.402       .  A
C651        H670   1.085       .  S
C652        C653   1.417       .  A
C652        C664   1.444       .  S
C653        C654   1.405       .  A
C654        H669   1.085       .  S
C655        C656   1.398       .  A
C655        C660   1.404       .  A
C656        C657   1.406       .  A
C656        H671   1.085       .  S
C657        C658   1.432       .  A
C657        C661   1.442       .  S
C658        C792   1.575       .  S
C658        C659   1.421       .  A
C659        C660   1.397       .  A
C660        C662   1.445       .  S
C661        N665   1.157       .  T
C663        N668   1.157       .  T
C664        N667   1.157       .  T
C673        C674   1.412       .  A
C673        C678   1.405       .  A
C673        C687   1.443       .  S
C674        C679   1.489       .  S
C674        C675   1.403       .  A
C675        C676   1.398       .  A
C675        H694   1.085       .  S
C676        C677   1.414       .  A
C676        C688   1.446       .  S
C677        C678   1.403       .  A
C678        H693   1.084       .  S
C679        C680   1.397       .  A
C679        C684   1.405       .  A
C680        C681   1.402       .  A
C680        H695   1.085       .  S
C681        C682   1.432       .  A
C681       C1453   1.442   1_455  S
C682        C683   1.421       .  A
C683        C684   1.399       .  A
C683        H696   1.081       .  S
C684        C686   1.444       .  S
C685       C1449   1.442       .  S
C685        N689   1.157       .  T
C686        N690   1.157       .  T
C687        N692   1.157       .  T
C688        N691   1.157       .  T
C697        C698   1.409       .  A
C697        C702   1.402       .  A
C697        C711   1.442       .  S
C698        C703   1.487       .  S
C698        C699   1.400       .  A
C699        C700   1.402       .  A
C699        H718   1.085       .  S
C700        C701   1.423       .  A
C700        C712   1.444       .  S
C701        C702   1.409       .  A
C702        H717   1.084       .  S
C703        C704   1.399       .  A
C703        C708   1.403       .  A
C704        C705   1.408       .  A
C704        H719   1.085       .  S
C705        C706   1.434       .  A
C705        C709   1.442       .  S
C706        C707   1.422       .  A
C707        C708   1.398       .  A
C707        H720   1.084       .  S
C708        C710   1.444       .  S
C709        N713   1.158       .  T
C710        N714   1.157       .  T
C711        N716   1.157   1_565  T
C712        N715   1.157       .  T
C721        C722   1.401       .  A
C721        C726   1.397       .  A
C721        C735   1.446       .  S
C722        C727   1.486       .  S
C722        C723   1.398       .  A
C723        C724   1.403       .  A
C723        H742   1.085       .  S
C724        C725   1.434       .  A
C724        C736   1.446       .  S
C725        C791   1.589       .  S
C725        C726   1.424       .  A
C726        H741   1.077   1_565  S
C727        C728   1.406       .  A
C727        C732   1.407       .  A
C728        C729   1.406       .  A
C728        H743   1.084       .  S
C729        C730   1.414       .  A
C729        C733   1.443       .  S
C730        C731   1.409       .  A
C731        C732   1.395       .  A
C731        H744   1.085       .  S
C732        C734   1.445       .  S
C733        N737   1.157       .  T
C734        N738   1.157       .  T
C735        N740   1.157   1_565  T
C736        N739   1.157       .  T
C745        C746   1.403       .  A
C745        C750   1.401       .  A
C745        C759   1.443       .  S
C746        C751   1.483       .  S
C746        C747   1.393       .  A
C747        C748   1.396       .  A
C747        H766   1.086       .  S
C748        C749   1.437       .  A
C748        C760   1.442       .  S
C749        C750   1.423       .  A
C750        H765   1.085   1_455  S
C751        C752   1.400       .  A
C751        C756   1.409       .  A
C752        C753   1.400       .  A
C752        H767   1.085       .  S
C753        C754   1.420       .  A
C753        C757   1.445       .  S
C754        C755   1.407       .  A
C755        C756   1.400       .  A
C755        H768   1.084       .  S
C756        C758   1.444       .  S
C757        N761   1.157       .  T
C758        N762   1.157       .  T
C759        N764   1.157   1_455  T
C760        N763   1.157       .  T
Fe769       O785   2.066       .  S
Fe769       O775   2.066       .  S
Fe769       O782   2.050       .  S
Fe769       O774   2.066       .  S
Fe769       O780   1.964       .  S
Fe770       O773   2.079       .  S
Fe770       O777   2.087       .  S
Fe770       O781   2.080       .  S
Fe770       O786   2.087       .  S
Fe770       O780   1.971       .  S
Fe771       O789   2.060       .  S
Fe771       O776   2.059       .  S
Fe771       O783   2.073       .  S
Fe771       O772   2.070       .  S
Fe771       O780   1.961       .  S
O772        C779   1.271       .  A
O773        C787   1.271       .  A
O774        C779   1.272       .  A
O775        C778   1.266       .  A
O776        C788   1.269       .  A
O777        C790   1.277       .  A
C778        O783   1.268       .  A
C778       C1061   1.481       .  S
C779       C1138   1.488       .  S
O781        C784   1.269       .  A
O782        C784   1.265       .  A
C784       C1114   1.488       .  S
O785        C790   1.274       .  A
O786        C788   1.276       .  A
C787        O789   1.269       .  A
C787       C1018   1.499       .  S
C788       C1085   1.500       .  S
C790       C1037   1.488       .  S
C791        C989   1.581       .  S
C791       C1474   1.570       .  S
C791       C1133   1.579   1_565  S
C792        C970   1.568       .  S
C792       C1397   1.580       .  S
C792       C1066   1.584   1_565  S
Fe793       O809   2.077       .  S
Fe793       O799   2.072       .  S
Fe793       O806   2.074       .  S
Fe793       O798   2.076       .  S
Fe793       O804   1.981       .  S
Fe794       O797   2.058       .  S
Fe794       O801   2.039       .  S
Fe794       O805   2.055       .  S
Fe794       O810   2.052       .  S
Fe794       O804   1.975       .  S
Fe795       O813   2.072       .  S
Fe795       O800   2.071       .  S
Fe795       O807   2.061       .  S
Fe795       O796   2.068       .  S
Fe795       O804   1.974       .  S
O796        C803   1.268       .  A
O797        C811   1.266       .  A
O798        C803   1.271       .  A
O799        C802   1.271       .  A
O800        C812   1.270       .  A
O801        C814   1.263       .  A
C802        O807   1.270       .  A
C802        C821   1.493       .  S
C803        C893   1.503       .  S
O805        C808   1.268       .  A
O806        C808   1.273       .  A
C808        C922   1.492       .  S
O809        C814   1.269       .  A
O810        C812   1.265       .  A
C811        O813   1.270       .  A
C811        C874   1.494       .  S
C812        C941   1.483       .  S
C814        C845   1.484       .  S
C815        C850   1.579       .  S
C815        C994   1.585       .  S
C816        C917   1.564       .  S
C816        C965   1.575       .  S
C817        C818   1.406       .  A
C817        C822   1.398       .  A
C817        C831   1.444       .  S
C818        C823   1.481       .  S
C818        C819   1.401       .  A
C819        C820   1.403       .  A
C819        H838   1.085       .  S
C820        C821   1.419       .  A
C820        C832   1.444       .  S
C821        C822   1.410       .  A
C822        H837   1.084       .  S
C823        C824   1.392       .  A
C823        C828   1.401       .  A
C824        C825   1.397       .  A
C824        H839   1.086       .  S
C825        C826   1.434       .  A
C825        C829   1.443       .  S
C826        C827   1.425       .  A
C827        C828   1.404       .  A
C827        H840   1.078       .  S
C828        C830   1.444       .  S
C830        N834   1.157       .  T
C832        N835   1.157       .  T
C841        C842   1.414       .  A
C841        C846   1.405       .  A
C841        C855   1.444       .  S
C842        C847   1.486       .  S
C842        C843   1.399       .  A
C843        C844   1.393       .  A
C843        H862   1.085       .  S
C844        C845   1.418       .  A
C844        C856   1.445       .  S
C845        C846   1.406       .  A
C846        H861   1.084       .  S
C847        C848   1.394       .  A
C847        C852   1.406       .  A
C848        C849   1.399       .  A
C848        H863   1.086       .  S
C849        C850   1.437       .  A
C849        C853   1.441       .  S
C850        C851   1.420       .  A
C851        C852   1.399       .  A
C851        H864   1.085   1_545  S
C852        C854   1.444       .  S
C853        N857   1.157       .  T
C854        N858   1.157       .  T
C855        N860   1.157       .  T
C856        N859   1.157       .  T
C865        C866   1.411       .  A
C865        C870   1.397       .  A
C865        C879   1.446       .  S
C866        C871   1.497       .  S
C866        C867   1.403       .  A
C867        C868   1.405       .  A
C867        H886   1.084       .  S
C868        C869   1.430       .  A
C868        C880   1.445   1_655  S
C869        C870   1.417       .  A
C870        H885   1.078   1_545  S
C871        C872   1.405       .  A
C871        C876   1.414       .  A
C872        C873   1.403       .  A
C872        H887   1.085       .  S
C873        C874   1.419       .  A
C873        C877   1.445       .  S
C874        C875   1.406       .  A
C875        C876   1.399       .  A
C875        H888   1.084       .  S
C876        C878   1.443       .  S
C877        N881   1.158       .  T
C879        N884   1.157   1_545  T
C880        N883   1.157       .  T
C889        C890   1.413       .  A
C889        C894   1.405       .  A
C889        C903   1.444       .  S
C890        C895   1.499       .  S
C890        C891   1.403       .  A
C891        C892   1.403       .  A
C891        H910   1.084       .  S
C892        C893   1.421       .  A
C892        C904   1.444       .  S
C893        C894   1.410       .  A
C894        H909   1.084       .  S
C895        C896   1.400       .  A
C895        C900   1.408       .  A
C896        C897   1.404       .  A
C896        H911   1.086       .  S
C897        C898   1.436       .  A
C897        C901   1.445       .  S
C898        C899   1.418       .  A
C899        C900   1.402       .  A
C899        H912   1.082   1_655  S
C900        C902   1.443       .  S
C901        N905   1.158       .  T
C902        N906   1.157       .  T
C903        N908   1.157       .  T
C904        N907   1.157       .  T
C913        C914   1.402       .  A
C913        C918   1.396       .  A
C913        C927   1.445       .  S
C914        C919   1.478       .  S
C914        C915   1.395       .  A
C915        C916   1.404       .  A
C915        H934   1.085       .  S
C916        C917   1.434       .  A
C916        C928   1.443       .  S
C917        C918   1.417       .  A
C918        H933   1.080       .  S
C919        C920   1.397       .  A
C919        C924   1.407       .  A
C920        C921   1.399       .  A
C920        H935   1.085       .  S
C921        C922   1.423       .  A
C921        C925   1.445       .  S
C922        C923   1.409       .  A
C923        C924   1.400       .  A
C923        H936   1.084       .  S
C924        C926   1.443       .  S
C925        N929   1.157       .  T
C926        N930   1.157       .  T
C927        N932   1.157       .  T
C928        N931   1.158       .  T
C937        C938   1.411       .  A
C937        C942   1.401       .  A
C937        C951   1.443       .  S
C938        C943   1.485       .  S
C938        C939   1.402       .  A
C939        C940   1.399       .  A
C939        H958   1.085       .  S
C940        C941   1.418       .  A
C940        C952   1.445       .  S
C941        C942   1.405       .  A
C942        H957   1.085       .  S
C943        C944   1.395       .  A
C943        C948   1.404       .  A
C944        C945   1.399   1_655  A
C944        H959   1.086       .  S
C945        C946   1.436   1_455  A
C945        C949   1.441       .  S
C946        C947   1.421       .  A
C947        C948   1.401       .  A
C947        H960   1.084   1_545  S
C948        C950   1.443       .  S
C950        N954   1.157       .  T
C952        N955   1.158       .  T
C961        C966   1.400       .  A
C961        C975   1.445       .  S
C962        C967   1.495       .  S
C962       C1347   1.398       .  A
C963       C1346   1.398       .  A
C963        C964   1.403       .  A
C963        H982   1.085       .  S
C964        C965   1.432       .  A
C964        C976   1.441       .  S
C966        H981   1.079       .  S
C967       C1356   1.407       .  A
C968        C969   1.403       .  A
C968        H983   1.086       .  S
C969        C973   1.442       .  S
C970        C971   1.419   1_565  A
C971        C972   1.400       .  A
C971        H984   1.084       .  S
C972       C1351   1.407       .  A
C972       C1358   1.444       .  S
C973        N977   1.158       .  T
C974       C1356   1.444       .  S
C974        N978   1.157       .  T
C975        N980   1.157       .  T
C976        N979   1.157       .  T
C985        C986   1.414   1_655  A
C985        C990   1.404       .  A
C985        C999   1.445       .  S
C986        C991   1.513   1_554  S
C987        C988   1.401       .  A
C987       H1006   1.082       .  S
C988        C989   1.432   1_545  A
C988       C1000   1.444       .  S
C990       H1005   1.073       .  S
C991       C1376   1.405   1_455  A
C992       C1375   1.406   1_565  A
C992        C993   1.404       .  A
C992       H1007   1.081       .  S
C993        C997   1.445       .  S
C994       C1379   1.419       .  A
C995       C1378   1.418       .  A
C995        C996   1.399       .  A
C995       H1008   1.072       .  S
C996        C998   1.446       .  S
C997       N1001   1.157       .  T
C998       N1002   1.157       .  T
C999       N1004   1.157       .  T
C1000      N1003   1.157       .  T
C1009      C1010   1.402       .  A
C1009      C1014   1.398       .  A
C1009      C1023   1.445       .  S
C1010      C1015   1.488       .  S
C1010      C1011   1.397       .  A
C1011      C1012   1.408       .  A
C1011      H1030   1.085       .  S
C1012      C1013   1.437       .  A
C1012      C1024   1.443       .  S
C1013      C1176   1.581       .  S
C1013      C1014   1.421       .  A
C1014      H1029   1.084       .  S
C1015      C1016   1.404       .  A
C1015      C1020   1.406       .  A
C1016      C1017   1.407       .  A
C1016      H1031   1.085       .  S
C1017      C1018   1.421       .  A
C1017      C1021   1.444       .  S
C1018      C1019   1.410       .  A
C1019      C1020   1.398       .  A
C1019      H1032   1.084       .  S
C1020      C1022   1.444       .  S
C1021      N1025   1.158       .  T
C1022      N1026   1.157       .  T
C1023      N1028   1.157       .  T
C1024      N1027   1.158       .  T
C1033      C1034   1.413       .  A
C1033      C1038   1.402       .  A
C1033      C1047   1.444       .  S
C1034      C1039   1.491       .  S
C1034      C1035   1.402       .  A
C1035      C1036   1.403       .  A
C1035      H1054   1.085       .  S
C1036      C1037   1.418       .  A
C1036      C1048   1.444       .  S
C1037      C1038   1.406       .  A
C1038      H1053   1.085       .  S
C1039      C1040   1.399       .  A
C1039      C1044   1.405       .  A
C1040      C1041   1.407       .  A
C1040      H1055   1.085       .  S
C1041      C1042   1.431       .  A
C1041      C1045   1.442       .  S
C1042      C1043   1.420       .  A
C1043      C1044   1.397       .  A
C1043      H1440   1.079       .  S
C1044      C1046   1.445       .  S
C1045      N1049   1.157       .  T
C1046      N1434   1.157       .  T
C1047      N1052   1.157       .  T
C1048      N1051   1.157       .  T
N1050      C1430   1.157   1_545  T
H1056      C1427   1.079   1_545  S
C1057      C1058   1.413       .  A
C1057      C1062   1.405       .  A
C1057      C1071   1.443       .  S
C1058      C1063   1.492       .  S
C1058      C1059   1.403       .  A
C1059      C1060   1.399       .  A
C1059      H1078   1.085       .  S
C1060      C1061   1.415       .  A
C1060      C1072   1.446       .  S
C1061      C1062   1.403       .  A
C1062      H1077   1.084       .  S
C1063      C1064   1.398       .  A
C1063      C1068   1.406       .  A
C1064      C1065   1.403       .  A
C1064      H1079   1.085       .  S
C1065      C1066   1.431       .  A
C1066      C1067   1.421       .  A
C1067      C1068   1.400       .  A
C1067      H1080   1.081       .  S
C1068      C1070   1.444       .  S
C1069      N1073   1.157       .  T
C1070      N1074   1.157       .  T
C1071      N1076   1.157       .  T
C1072      N1075   1.157       .  T
C1081      C1082   1.409       .  A
C1081      C1086   1.404       .  A
C1081      C1095   1.443       .  S
C1082      C1087   1.488       .  S
C1082      C1083   1.399       .  A
C1083      C1084   1.402       .  A
C1083      H1102   1.085       .  S
C1084      C1085   1.423       .  A
C1084      C1096   1.444       .  S
C1085      C1086   1.409       .  A
C1086      H1101   1.084       .  S
C1087      C1088   1.399       .  A
C1087      C1092   1.403       .  A
C1088      C1089   1.409       .  A
C1088      H1103   1.085       .  S
C1089      C1090   1.435       .  A
C1089      C1093   1.442       .  S
C1090      C1175   1.570       .  S
C1090      C1091   1.422       .  A
C1091      C1092   1.397       .  A
C1091      H1104   1.084       .  S
C1092      C1094   1.444       .  S
C1093      N1097   1.158       .  T
C1094      N1098   1.157       .  T
C1095      N1100   1.157       .  T
C1096      N1099   1.157       .  T
C1105      C1106   1.401       .  A
C1105      C1110   1.397       .  A
C1105      C1119   1.446       .  S
C1106      C1111   1.488       .  S
C1106      C1107   1.399       .  A
C1107      C1108   1.405       .  A
C1107      H1126   1.085       .  S
C1108      C1109   1.435       .  A
C1108      C1120   1.446       .  S
C1109      C1110   1.425       .  A
C1110      H1125   1.076       .  S
C1111      C1112   1.407       .  A
C1111      C1116   1.407       .  A
C1112      C1113   1.407       .  A
C1112      H1127   1.084       .  S
C1113      C1114   1.414       .  A
C1113      C1117   1.443       .  S
C1114      C1115   1.409       .  A
C1115      C1116   1.396       .  A
C1115      H1128   1.085       .  S
C1116      C1118   1.445       .  S
C1117      N1121   1.157       .  T
C1118      N1122   1.157       .  T
C1119      N1124   1.157       .  T
C1120      N1123   1.157       .  T
C1129      C1130   1.403       .  A
C1129      C1134   1.402       .  A
C1129      C1143   1.443       .  S
C1130      C1135   1.481       .  S
C1130      C1131   1.392       .  A
C1131      C1132   1.396       .  A
C1131      H1150   1.086       .  S
C1132      C1133   1.436       .  A
C1132      C1144   1.440       .  S
C1133      C1134   1.423       .  A
C1134      H1149   1.085       .  S
C1135      C1136   1.399       .  A
C1135      C1140   1.409       .  A
C1136      C1137   1.399       .  A
C1136      H1151   1.085       .  S
C1137      C1138   1.421       .  A
C1137      C1141   1.445       .  S
C1138      C1139   1.407       .  A
C1139      C1140   1.401       .  A
C1139      H1152   1.084       .  S
C1140      C1142   1.444       .  S
C1141      N1145   1.157       .  T
C1142      N1146   1.157       .  T
C1143      N1148   1.157       .  T
C1144      N1147   1.156       .  T
Fe1153     O1169   2.063       .  S
Fe1153     O1159   2.064       .  S
Fe1153     O1166   2.050       .  S
Fe1153     O1158   2.060       .  S
Fe1153     O1164   1.962       .  S
Fe1154     O1157   2.075       .  S
Fe1154     O1161   2.085       .  S
Fe1154     O1165   2.078       .  S
Fe1154     O1170   2.084       .  S
Fe1154     O1164   1.967       .  S
Fe1155     O1173   2.064       .  S
Fe1155     O1160   2.058       .  S
Fe1155     O1167   2.071       .  S
Fe1155     O1156   2.076       .  S
Fe1155     O1164   1.960       .  S
O1156      C1163   1.272       .  A
O1157      C1171   1.270       .  A
O1158      C1163   1.272       .  A
O1159      C1162   1.266       .  A
O1160      C1172   1.269       .  A
O1161      C1174   1.277       .  A
C1162      O1167   1.268       .  A
C1162      C1445   1.479       .  S
C1163      C1522   1.490       .  S
O1165      C1168   1.269       .  A
O1166      C1168   1.265       .  A
C1168      C1498   1.487       .  S
O1169      C1174   1.274       .  A
O1170      C1172   1.275       .  A
C1171      O1173   1.270       .  A
C1171      C1402   1.495       .  S
C1172      C1469   1.499       .  S
C1174      C1421   1.486       .  S
C1175      C1373   1.581       .  S
C1175      C1517   1.579       .  S
C1176      C1354   1.569       .  S
C1176      C1450   1.582       .  S
Fe1177     O1193   2.085       .  S
Fe1177     O1183   2.066       .  S
Fe1177     O1190   2.069       .  S
Fe1177     O1182   2.082       .  S
Fe1177     O1188   1.969       .  S
Fe1178     O1181   2.063       .  S
Fe1178     O1185   2.040       .  S
Fe1178     O1189   2.067       .  S
Fe1178     O1194   2.049       .  S
Fe1178     O1188   1.967       .  S
Fe1179     O1197   2.067       .  S
Fe1179     O1184   2.075       .  S
Fe1179     O1191   2.070       .  S
Fe1179     O1180   2.068       .  S
Fe1179     O1188   1.965       .  S
O1180      C1187   1.268       .  A
O1181      C1195   1.268       .  A
O1182      C1187   1.272       .  A
O1183      C1186   1.271       .  A
O1184      C1196   1.272       .  A
O1185      C1198   1.263       .  A
C1186      O1191   1.273       .  A
C1186      C1205   1.495       .  S
C1187      C1277   1.501       .  S
O1189      C1192   1.270       .  A
O1190      C1192   1.273       .  A
C1192      C1306   1.494       .  S
O1193      C1198   1.271       .  A
O1194      C1196   1.266       .  A
C1195      O1197   1.269       .  A
C1195      C1258   1.489       .  S
C1196      C1325   1.477       .  S
C1198      C1229   1.479       .  S
C1199      C1234   1.582       .  S
C1199      C1378   1.586       .  S
C1200      C1301   1.566       .  S
C1200      C1349   1.575       .  S
C1201      C1202   1.406       .  A
C1201      C1206   1.398       .  A
C1201      C1215   1.444       .  S
C1202      C1207   1.482       .  S
C1202      C1203   1.400       .  A
C1203      C1204   1.403       .  A
C1203      H1222   1.085       .  S
C1204      C1205   1.421       .  A
C1204      C1216   1.444       .  S
C1205      C1206   1.411       .  A
C1206      H1221   1.084       .  S
C1207      C1208   1.392       .  A
C1207      C1212   1.401       .  A
C1208      C1209   1.397       .  A
C1208      H1223   1.086       .  S
C1209      C1210   1.434       .  A
C1209      C1213   1.443       .  S
C1210      C1211   1.425       .  A
C1211      C1212   1.404       .  A
C1211      H1224   1.079       .  S
C1212      C1214   1.444       .  S
C1214      N1218   1.157       .  T
C1216      N1219   1.157       .  T
C1225      C1226   1.415       .  A
C1225      C1230   1.404       .  A
C1225      C1239   1.444       .  S
C1226      C1231   1.489       .  S
C1226      C1227   1.401       .  A
C1227      C1228   1.396       .  A
C1227      H1246   1.085       .  S
C1228      C1229   1.415       .  A
C1228      C1240   1.446       .  S
C1229      C1230   1.403       .  A
C1230      H1245   1.085       .  S
C1231      C1232   1.394       .  A
C1231      C1236   1.406       .  A
C1232      C1233   1.399       .  A
C1232      H1247   1.086       .  S
C1233      C1234   1.437       .  A
C1233      C1237   1.440       .  S
C1234      C1235   1.421       .  A
C1235      C1236   1.401       .  A
C1235      H1248   1.085       .  S
C1236      C1238   1.444       .  S
C1237      N1241   1.157       .  T
C1238      N1242   1.157       .  T
C1239      N1244   1.157       .  T
C1240      N1243   1.157       .  T
C1249      C1250   1.411       .  A
C1249      C1254   1.397       .  A
C1249      C1263   1.446       .  S
C1250      C1255   1.497       .  S
C1250      C1251   1.403       .  A
C1251      C1252   1.406       .  A
C1251      H1270   1.084       .  S
C1252      C1253   1.431       .  A
C1252      C1264   1.444   1_655  S
C1253      C1254   1.417       .  A
C1254      H1269   1.078       .  S
C1255      C1256   1.406       .  A
C1255      C1260   1.415       .  A
C1256      C1257   1.402       .  A
C1256      H1271   1.085       .  S
C1257      C1258   1.416       .  A
C1257      C1261   1.445       .  S
C1258      C1259   1.404       .  A
C1259      C1260   1.400       .  A
C1259      H1272   1.085       .  S
C1260      C1262   1.443       .  S
C1261      N1265   1.158       .  T
C1263      N1268   1.157       .  T
C1264      N1267   1.157       .  T
C1273      C1274   1.413       .  A
C1273      C1278   1.405       .  A
C1273      C1287   1.444       .  S
C1274      C1279   1.501       .  S
C1274      C1275   1.405       .  A
C1275      C1276   1.404       .  A
C1275      H1294   1.084       .  S
C1276      C1277   1.420       .  A
C1276      C1288   1.444       .  S
C1277      C1278   1.409       .  A
C1278      H1293   1.084       .  S
C1279      C1280   1.400       .  A
C1279      C1284   1.408       .  A
C1280      C1281   1.405       .  A
C1280      H1295   1.086       .  S
C1281      C1282   1.436       .  A
C1281      C1285   1.444       .  S
C1282      C1283   1.419       .  A
C1283      C1284   1.402       .  A
C1283      H1296   1.082   1_655  S
C1284      C1286   1.443       .  S
C1285      N1289   1.158   1_565  T
C1286      N1290   1.157       .  T
C1287      N1292   1.157       .  T
C1288      N1291   1.157       .  T
C1297      C1298   1.403       .  A
C1297      C1302   1.398       .  A
C1297      C1311   1.445       .  S
C1298      C1303   1.481       .  S
C1298      C1299   1.396       .  A
C1299      C1300   1.405       .  A
C1299      H1318   1.085       .  S
C1300      C1301   1.434       .  A
C1300      C1312   1.443       .  S
C1301      C1302   1.417       .  A
C1302      H1317   1.080       .  S
C1303      C1304   1.398       .  A
C1303      C1308   1.408       .  A
C1304      C1305   1.401       .  A
C1304      H1319   1.085       .  S
C1305      C1306   1.422       .  A
C1305      C1309   1.445       .  S
C1306      C1307   1.408       .  A
C1307      C1308   1.400       .  A
C1307      H1320   1.084       .  S
C1308      C1310   1.443       .  S
C1309      N1313   1.157       .  T
C1310      N1314   1.157       .  T
C1311      N1316   1.157       .  T
C1312      N1315   1.158       .  T
C1321      C1322   1.411       .  A
C1321      C1326   1.399       .  A
C1321      C1335   1.443       .  S
C1322      C1327   1.485       .  S
C1322      C1323   1.403       .  A
C1323      C1324   1.399       .  A
C1323      H1342   1.085       .  S
C1324      C1325   1.415       .  A
C1324      C1336   1.445       .  S
C1325      C1326   1.403       .  A
C1326      H1341   1.085       .  S
C1327      C1328   1.395       .  A
C1327      C1332   1.404       .  A
C1328      C1329   1.398   1_655  A
C1328      H1343   1.086       .  S
C1329      C1330   1.435   1_455  A
C1329      C1333   1.439       .  S
C1330      C1331   1.421       .  A
C1331      C1332   1.401       .  A
C1331      H1344   1.084       .  S
C1332      C1334   1.443       .  S
C1334      N1338   1.157       .  T
C1336      N1339   1.158       .  T
C1345      C1350   1.400       .  A
C1345      C1359   1.445       .  S
C1346      C1351   1.494       .  S
C1347      C1348   1.403       .  A
C1347      H1366   1.085       .  S
C1348      C1349   1.432       .  A
C1348      C1360   1.441       .  S
C1350      H1365   1.079       .  S
C1352      C1353   1.403       .  A
C1352      H1367   1.086       .  S
C1353      C1357   1.442       .  S
C1354      C1355   1.420       .  A
C1355      C1356   1.400       .  A
C1355      H1368   1.084       .  S
C1357      N1361   1.158       .  T
C1358      N1362   1.157       .  T
C1359      N1364   1.157       .  T
C1360      N1363   1.157       .  T
C1369      C1370   1.414   1_565  A
C1369      C1374   1.402       .  A
C1369      C1383   1.446       .  S
C1370      C1375   1.513   1_554  S
C1371      C1372   1.401       .  A
C1371      H1390   1.083       .  S
C1372      C1373   1.433       .  A
C1372      C1384   1.444       .  S
C1374      H1389   1.072       .  S
C1376      C1377   1.404       .  A
C1376      H1391   1.083       .  S
C1377      C1381   1.444       .  S
C1379      C1380   1.399       .  A
C1379      H1392   1.068       .  S
C1380      C1382   1.447       .  S
C1381      N1385   1.157       .  T
C1382      N1386   1.158       .  T
C1383      N1388   1.157       .  T
C1384      N1387   1.157       .  T
C1393      C1394   1.403       .  A
C1393      C1398   1.397       .  A
C1393      C1407   1.445       .  S
C1394      C1399   1.489       .  S
C1394      C1395   1.398       .  A
C1395      C1396   1.408       .  A
C1395      H1414   1.085       .  S
C1396      C1397   1.437       .  A
C1396      C1408   1.443       .  S
C1397      C1398   1.421       .  A
C1398      H1413   1.084       .  S
C1399      C1400   1.404       .  A
C1399      C1404   1.407       .  A
C1400      C1401   1.405       .  A
C1400      H1415   1.085       .  S
C1401      C1402   1.420       .  A
C1401      C1405   1.444       .  S
C1402      C1403   1.409       .  A
C1403      C1404   1.400       .  A
C1403      H1416   1.084       .  S
C1404      C1406   1.444       .  S
C1405      N1409   1.158       .  T
C1406      N1410   1.157       .  T
C1407      N1412   1.157       .  T
C1408      N1411   1.158       .  T
C1417      C1418   1.412       .  A
C1417      C1422   1.401       .  A
C1417      C1431   1.444       .  S
C1418      C1423   1.489       .  S
C1418      C1419   1.402       .  A
C1419      C1420   1.402       .  A
C1419      H1438   1.085       .  S
C1420      C1421   1.417       .  A
C1420      C1432   1.444       .  S
C1421      C1422   1.405       .  A
C1422      H1437   1.085       .  S
C1423      C1424   1.398       .  A
C1423      C1428   1.404       .  A
C1424      C1425   1.406       .  A
C1424      H1439   1.085       .  S
C1425      C1426   1.432       .  A
C1425      C1429   1.442       .  S
C1426      C1427   1.421       .  A
C1427      C1428   1.397       .  A
C1428      C1430   1.445       .  S
C1429      N1433   1.157       .  T
C1431      N1436   1.157       .  T
C1432      N1435   1.157       .  T
C1441      C1442   1.412       .  A
C1441      C1446   1.405       .  A
C1441      C1455   1.443       .  S
C1442      C1447   1.489       .  S
C1442      C1443   1.403       .  A
C1443      C1444   1.398       .  A
C1443      H1462   1.085       .  S
C1444      C1445   1.414       .  A
C1444      C1456   1.446       .  S
C1445      C1446   1.403       .  A
C1446      H1461   1.084       .  S
C1447      C1448   1.397       .  A
C1447      C1452   1.405       .  A
C1448      C1449   1.402       .  A
C1448      H1463   1.085       .  S
C1449      C1450   1.432       .  A
C1450      C1451   1.421       .  A
C1451      C1452   1.399       .  A
C1451      H1464   1.081       .  S
C1452      C1454   1.444       .  S
C1453      N1457   1.157       .  T
C1454      N1458   1.157       .  T
C1455      N1460   1.157       .  T
C1456      N1459   1.157       .  T
C1465      C1466   1.409       .  A
C1465      C1470   1.402       .  A
C1465      C1479   1.442       .  S
C1466      C1471   1.487       .  S
C1466      C1467   1.400       .  A
C1467      C1468   1.402       .  A
C1467      H1486   1.085       .  S
C1468      C1469   1.423       .  A
C1468      C1480   1.444       .  S
C1469      C1470   1.409       .  A
C1470      H1485   1.084       .  S
C1471      C1472   1.399       .  A
C1471      C1476   1.403       .  A
C1472      C1473   1.408       .  A
C1472      H1487   1.085       .  S
C1473      C1474   1.434       .  A
C1473      C1477   1.442       .  S
C1474      C1475   1.422       .  A
C1475      C1476   1.398       .  A
C1475      H1488   1.084       .  S
C1476      C1478   1.444       .  S
C1477      N1481   1.158       .  T
C1478      N1482   1.157       .  T
C1479      N1484   1.157   1_565  T
C1480      N1483   1.157       .  T
C1489      C1490   1.401       .  A
C1489      C1494   1.397       .  A
C1489      C1503   1.446       .  S
C1490      C1495   1.486       .  S
C1490      C1491   1.398       .  A
C1491      C1492   1.403       .  A
C1491      H1510   1.085       .  S
C1492      C1493   1.434       .  A
C1492      C1504   1.446       .  S
C1493      C1494   1.424       .  A
C1494      H1509   1.077   1_565  S
C1495      C1496   1.406       .  A
C1495      C1500   1.407       .  A
C1496      C1497   1.406       .  A
C1496      H1511   1.084       .  S
C1497      C1498   1.414       .  A
C1497      C1501   1.443       .  S
C1498      C1499   1.409       .  A
C1499      C1500   1.395       .  A
C1499      H1512   1.085       .  S
C1500      C1502   1.445       .  S
C1501      N1505   1.157       .  T
C1502      N1506   1.157       .  T
C1503      N1508   1.157   1_565  T
C1504      N1507   1.157       .  T
C1513      C1514   1.403       .  A
C1513      C1518   1.401       .  A
C1513      C1527   1.443       .  S
C1514      C1519   1.483       .  S
C1514      C1515   1.393       .  A
C1515      C1516   1.396       .  A
C1515      H1534   1.086       .  S
C1516      C1517   1.437       .  A
C1516      C1528   1.442       .  S
C1517      C1518   1.423       .  A
C1518      H1533   1.085       .  S
C1519      C1520   1.400       .  A
C1519      C1524   1.409       .  A
C1520      C1521   1.400       .  A
C1520      H1535   1.085       .  S
C1521      C1522   1.420       .  A
C1521      C1525   1.445       .  S
C1522      C1523   1.407       .  A
C1523      C1524   1.400       .  A
C1523      H1536   1.084       .  S
C1524      C1526   1.444       .  S
C1525      N1529   1.157       .  T
C1526      N1530   1.157       .  T
C1527      N1532   1.157       .  T
C1528      N1531   1.157       .  T
