geometry optimzed in LAMMPS
_audit_creation_date              2020-11-30 
_audit_creation_method            'lammps2cif' 
_symmetry_space_group_name_H-M    'P1' 
_symmetry_Int_Tables_number       1 
_symmetry_cell_setting            triclinic 
loop_ 
_symmetry_equiv_pos_as_xyz 
  x,y,z 
_cell_length_a                    42.19967937020157 
_cell_length_b                    42.26353301100173 
_cell_length_c                    42.16471573875369 
_cell_angle_alpha                 89.45479124466688 
_cell_angle_beta                  89.71609948454983 
_cell_angle_gamma                 90.88283775626634 
loop_ 
_atom_site_label 
_atom_site_type_symbol 
_atom_site_fract_x 
_atom_site_fract_y 
_atom_site_fract_z 
_atom_site_charge 
O1          O  0.58786505  0.33691253  0.47433718    -0.75120
O2          O  0.59274168  0.31729519  0.52461611    -0.54030
C3          C  0.60313542  0.33240783  0.50013377     0.78610
O4          O  0.41709209  0.31426937  0.49821605    -0.59720
O5          O  0.41767610  0.30930982  0.44547845    -0.52750
C6          C  0.40555352  0.32051506  0.47095812     0.70620
O7          O  0.49310937  0.34509956  0.56431032    -0.74280
O8          O  0.54028196  0.32188580  0.57489379    -0.54840
C9          C  0.51749913  0.34059180  0.58175014     0.76630
O10         O  0.52347085  0.30840044  0.39942173    -0.59420
O11         O  0.47061180  0.30621524  0.39696682    -0.52540
C12         C  0.49762161  0.31576935  0.38596498     0.73220
Zr13       Zr  0.53633242  0.32569192  0.45208390     2.54710
O14         O  0.51842586  0.38015621  0.44946539    -0.79990
O15         O  0.57039173  0.35375866  0.41401776    -0.93410
Zr16       Zr  0.47000982  0.32837556  0.51487618     2.64680
O17         O  0.46674616  0.38257576  0.49512129    -0.98360
O18         O  0.43194988  0.34869572  0.55294822    -0.80420
O19         O  0.52553599  0.33058608  0.50680110    -0.83780
O20         O  0.48097399  0.32520177  0.46012393    -2.18490
O21         O  0.52594870  0.23556485  0.40315804    -0.67170
O22         O  0.47302455  0.24180662  0.39777189    -0.51730
C23         C  0.50085862  0.23847604  0.38574568     0.71600
O24         O  0.48969478  0.24012725  0.58207265    -0.60080
O25         O  0.54100125  0.25728373  0.58215815    -0.52050
C26         C  0.51492047  0.25021794  0.59653583     0.73400
O27         O  0.41627718  0.24247390  0.50949400    -0.71470
O28         O  0.41441446  0.24372831  0.45593713    -0.50150
C29         C  0.40061952  0.24444664  0.48319265     0.74790
O30         O  0.59577438  0.23326760  0.48023976    -0.66800
O31         O  0.59717888  0.25772494  0.52820680    -0.54000
C32         C  0.61092362  0.24473269  0.50439460     0.73170
Zr33       Zr  0.53996844  0.23075855  0.46044527     2.77540
O34         O  0.52740291  0.17519762  0.47086682    -0.97550
O35         O  0.57587185  0.20008613  0.42786435    -0.78370
Zr36       Zr  0.47219687  0.23393949  0.52587087     2.70070
O37         O  0.47801419  0.17733850  0.51804960    -0.79620
O38         O  0.43794043  0.20467532  0.56288983    -0.98700
Zr39       Zr  0.54664640  0.28448576  0.53184431     2.21500
Zr40       Zr  0.46246623  0.27363922  0.44406092     2.11130
O41         O  0.48402806  0.22802577  0.47042739    -2.47390
O42         O  0.52813145  0.23332290  0.51603715    -0.79410
O43         O  0.51801148  0.27546015  0.43537109    -0.71610
O44         O  0.49111247  0.28463254  0.54195392    -2.32560
O45         O  0.55895210  0.28118158  0.47672407    -2.28770
O46         O  0.45152805  0.27822522  0.49904911    -0.73370
H47         H  0.47080667  0.34181235  0.44823031     0.78630
H48         H  0.48528571  0.28929210  0.56344005     0.79720
H49         H  0.47463192  0.20886636  0.46209063     0.81940
H50         H  0.58093721  0.28315915  0.47103021     0.79550
H51         H  0.42077918  0.36572793  0.54150542     0.42590
H52         H  0.42630774  0.22110204  0.57454017     0.41560
H53         H  0.49376349  0.17091148  0.53410839     0.41230
H54         H  0.52348469  0.16601773  0.44970036     0.39170
H55         H  0.59261070  0.21531494  0.42090165     0.42300
H56         H  0.58893725  0.34001711  0.41125341     0.37080
H57         H  0.53114383  0.39129135  0.46570729     0.43200
H58         H  0.44440951  0.38483948  0.48848548     0.39610
H59         H  0.54765269  0.16594349  0.47784502     0.44530
H60         H  0.57873277  0.37263638  0.42514111     0.43260
H61         H  0.46873996  0.39583921  0.51426038     0.43390
H62         H  0.42167439  0.19419399  0.54960375     0.43750
O63         O  0.58675565  0.52239583  0.31079690    -0.75120
O64         O  0.58695552  0.47211928  0.29158838    -0.54030
C65         C  0.59811431  0.49446891  0.30875407     0.78610
O66         O  0.42973573  0.53694616  0.30540675    -0.59720
O67         O  0.42852499  0.57875704  0.27078800    -0.52750
C68         C  0.41963155  0.56406249  0.29600338     0.70620
O69         O  0.48501584  0.44682981  0.31331567    -0.74280
O70         O  0.52993497  0.43067626  0.28857554    -0.54840
C71         C  0.50634354  0.42639416  0.30773342     0.76630
O72         O  0.52468870  0.60606168  0.29538051    -0.59420
O73         O  0.47938224  0.61366115  0.26710470    -0.52540
C74         C  0.50111351  0.62254212  0.28641911     0.73220
Zr75       Zr  0.54316434  0.55305238  0.29050276     2.54710
O76         O  0.53612975  0.55752890  0.34760324    -0.79990
O77         O  0.58781426  0.59020959  0.29102497    -0.93410
Zr78       Zr  0.46844792  0.49684575  0.29240535     2.64680
O79         O  0.46197711  0.49329770  0.34976748    -0.98360
O80         O  0.41869268  0.46798946  0.28510336    -0.80420
O81         O  0.52445063  0.50047382  0.29652651    -0.83780
O82         O  0.48789702  0.54905416  0.28791337    -2.18490
O83         O  0.53870908  0.60337380  0.20179520    -0.67170
O84         O  0.48590043  0.60767710  0.19947834    -0.51730
C85         C  0.51339218  0.62054043  0.20138584     0.71600
O86         O  0.48962081  0.42709907  0.20539621    -0.60080
O87         O  0.53989365  0.42387163  0.22437849    -0.52050
C88         C  0.51393074  0.41108434  0.21487753     0.73400
O89         O  0.42007982  0.50405109  0.20507235    -0.71470
O90         O  0.42027713  0.55726052  0.21155604    -0.50150
C91         C  0.40543514  0.53063607  0.20832133     0.74790
O92         O  0.60237435  0.52036976  0.20179672    -0.66800
O93         O  0.59858388  0.47340311  0.22867209    -0.54000
C94         C  0.61490395  0.49561005  0.21488466     0.73170
Zr95       Zr  0.54929154  0.54511103  0.19677194     2.77540
O96         O  0.54460548  0.53832670  0.13962644    -0.97550
O97         O  0.59031980  0.57605929  0.16935574    -0.78370
Zr98       Zr  0.47521870  0.48437043  0.19890473     2.70070
O99         O  0.48263000  0.49172572  0.14201237    -0.79620
O100        O  0.43898268  0.44837604  0.17175652    -0.98700
Zr101      Zr  0.54589663  0.47303271  0.25230918     2.21500
Zr102      Zr  0.47168912  0.56619525  0.23636719     2.11130
O103        O  0.49278089  0.53845923  0.19172376    -2.47390
O104        O  0.53174873  0.49065642  0.20020381    -0.79410
O105        O  0.52762852  0.57208761  0.24024356    -0.71610
O106        O  0.48968907  0.46725345  0.25032687    -2.32560
O107        O  0.56486833  0.52634092  0.24778208    -2.28770
O108        O  0.45378024  0.51315535  0.24158903    -0.73370
H109        H  0.48022643  0.56221257  0.30475570     0.78630
H110        H  0.48192944  0.44609383  0.25455204     0.79720
H111        H  0.48485138  0.54745840  0.17223922     0.81940
H112        H  0.58702779  0.52930265  0.25234832     0.79550
H113        H  0.42130192  0.45681445  0.26474409     0.42590
H114        H  0.42436400  0.44041145  0.18856552     0.41560
H115        H  0.49435009  0.47279498  0.13527760     0.41230
H116        H  0.54112631  0.51533601  0.13670756     0.39170
H117        H  0.60256161  0.58629230  0.18652787     0.42300
H118        H  0.60087729  0.58449068  0.27244514     0.37080
H119        H  0.53241275  0.53551296  0.35511851     0.43200
H120        H  0.47404723  0.51169596  0.35797811     0.39610
H121        H  0.52439620  0.54817030  0.13347749     0.44530
H122        H  0.60052428  0.58411953  0.30971649     0.43260
H123        H  0.43947786  0.49823211  0.35388640     0.43390
H124        H  0.42574416  0.46206778  0.15819960     0.43750
O125        O  0.52964588  0.70069375  0.40097776    -0.75120
O126        O  0.48270063  0.72625129  0.39493554    -0.54030
C127        C  0.50390721  0.70687302  0.38610242     0.78610
O128        O  0.51413873  0.71135383  0.56570073    -0.59720
O129        O  0.56386949  0.73334156  0.56778479    -0.52750
C130        C  0.54077101  0.71691675  0.57935034     0.70620
O131        O  0.43875206  0.70758193  0.48910551    -0.74280
O132        O  0.43384773  0.73305943  0.44155357    -0.54840
C133        C  0.42309459  0.71537086  0.46401051     0.76630
O134        O  0.60973551  0.71350232  0.47097799    -0.59420
O135        O  0.61374822  0.73617282  0.51947932    -0.52540
C136        C  0.62511401  0.72040801  0.49634308     0.73220
Zr137      Zr  0.55635463  0.71516781  0.44985449     2.54710
O138        O  0.55283109  0.65926455  0.46408222    -0.79990
O139        O  0.59520315  0.70024569  0.40993733    -0.93410
Zr140      Zr  0.49038495  0.71770623  0.51398050     2.64680
O141        O  0.49617853  0.66063554  0.51035276    -0.98360
O142        O  0.44975920  0.70843099  0.55432248    -0.80420
O143        O  0.50102882  0.71527863  0.45920058    -0.83780
O144        O  0.54565132  0.71696537  0.50453148    -2.18490
O145        O  0.61442529  0.80128865  0.46017108    -0.67170
O146        O  0.61329060  0.79881278  0.51354269    -0.51730
C147        C  0.62867052  0.79908762  0.48729767     0.71600
O148        O  0.43503952  0.81239076  0.49182943    -0.60080
O149        O  0.43314748  0.79311878  0.44163009    -0.52050
C150        C  0.41962693  0.80294513  0.46700006     0.73400
O151        O  0.50578441  0.80540626  0.56744260    -0.71470
O152        O  0.55844974  0.79652160  0.56991912    -0.50150
C153        C  0.53157148  0.80105625  0.58338652     0.74790
O154        O  0.54007361  0.80686654  0.38680871    -0.66800
O155        O  0.48850204  0.79089140  0.38694452    -0.54000
C156        C  0.51441395  0.79790667  0.37228284     0.73170
Zr157      Zr  0.55850638  0.81018661  0.44305328     2.77540
O158        O  0.55347143  0.86669236  0.45222299    -0.97550
O159        O  0.59532247  0.83687990  0.40663763    -0.78370
Zr160      Zr  0.49108912  0.81315640  0.51059351     2.70070
O161        O  0.50497735  0.86891067  0.50358174    -0.79620
O162        O  0.45525449  0.84356662  0.54353980    -0.98700
Zr163      Zr  0.48179255  0.76359620  0.43716406     2.21500
Zr164      Zr  0.56620886  0.76690264  0.52184842     2.11130
O165        O  0.54672298  0.81461515  0.49871212    -2.47390
O166        O  0.50279053  0.81304912  0.45470208    -0.79410
O167        O  0.57811362  0.76371480  0.46706969    -0.71610
O168        O  0.47007767  0.76436723  0.49233622    -2.32560
O169        O  0.53701660  0.76110226  0.42534244    -2.28770
O170        O  0.51114756  0.76621908  0.53336293    -0.73370
H171        H  0.55550460  0.69948481  0.51539766     0.78630
H172        H  0.44808565  0.76188711  0.49790742     0.79720
H173        H  0.55709615  0.83287561  0.50787767     0.81940
H174        H  0.54191224  0.75668265  0.40354697     0.79550
H175        H  0.43754128  0.72824377  0.55457849     0.42590
H176        H  0.44443834  0.82762182  0.55732670     0.41560
H177        H  0.49011545  0.87655120  0.48721027     0.41230
H178        H  0.57529532  0.87426858  0.45672114     0.39170
H179        H  0.60601267  0.81953403  0.39538376     0.42300
H180        H  0.59107119  0.71413331  0.39141500     0.37080
H181        H  0.53704697  0.65030975  0.44922514     0.43200
H182        H  0.51017255  0.65500241  0.52825407     0.39610
H183        H  0.54846568  0.87584234  0.43116528     0.44530
H184        H  0.58857935  0.67879698  0.40311104     0.43260
H185        H  0.47512699  0.65184969  0.51651536     0.43390
H186        H  0.46912316  0.85568997  0.55806578     0.43750
O187        O  0.68126871  0.45312186  0.51040287    -0.75120
O188        O  0.71295180  0.43266383  0.47228454    -0.54030
C189        C  0.69076558  0.43041569  0.49324405     0.78610
O190        O  0.70384776  0.60927216  0.47805340    -0.59720
O191        O  0.73058790  0.61754898  0.52411536    -0.52750
C192        C  0.71334047  0.62684291  0.50088206     0.70620
O193        O  0.68453985  0.52255020  0.41831624    -0.74280
O194        O  0.70586120  0.47327086  0.41611359    -0.54840
C195        C  0.68736050  0.49483844  0.40624587     0.76630
O196        O  0.70295552  0.52733515  0.58199987    -0.59420
O197        O  0.73098949  0.57376190  0.58051121    -0.52540
C198        C  0.71262331  0.55335834  0.59434383     0.73220
Zr199      Zr  0.70751756  0.49724264  0.53393039     2.54710
O200        O  0.65173352  0.50001750  0.54851254    -0.79990
O201        O  0.71804023  0.45740689  0.57457173    -0.93410
Zr202      Zr  0.70452663  0.55479275  0.46180951     2.64680
O203        O  0.64808967  0.55842457  0.47328031    -0.98360
O204        O  0.69634209  0.58714635  0.41460403    -0.80420
O205        O  0.70196854  0.50159973  0.47831861    -0.83780
O206        O  0.70856478  0.55052901  0.51751728    -2.18490
O207        O  0.79495539  0.50880486  0.58068372    -0.67170
O208        O  0.79172878  0.56212743  0.57863638    -0.51730
C209        C  0.79307306  0.53609042  0.59453799     0.71600
O210        O  0.79331944  0.52768293  0.39846307    -0.60080
O211        O  0.76817256  0.47946097  0.40089341    -0.52050
C212        C  0.78083668  0.50285701  0.38525552     0.73400
O213        O  0.79441503  0.60867836  0.46411322    -0.71470
O214        O  0.79695326  0.61122636  0.51722898    -0.50150
C215        C  0.79551584  0.62488503  0.49009884     0.74790
O216        O  0.79435037  0.43125746  0.51012866    -0.66800
O217        O  0.77640914  0.42844467  0.45945950    -0.54000
C218        C  0.78471950  0.41534137  0.48560808     0.73170
Zr219      Zr  0.80078554  0.48873881  0.52507108     2.77540
O220        O  0.85695539  0.49792377  0.51440269    -0.97550
O221        O  0.83004414  0.45507390  0.56144710    -0.78370
Zr222      Zr  0.79889209  0.55069411  0.45243250     2.70070
O223        O  0.85530306  0.54347686  0.46123656    -0.79620
O224        O  0.82789973  0.58002115  0.41129170    -0.98700
Zr225      Zr  0.74665175  0.47649757  0.45490298     2.21500
Zr226      Zr  0.76026291  0.56940210  0.53130329     2.11130
O227        O  0.80506890  0.54334574  0.50855307    -2.47390
O228        O  0.79823834  0.49589602  0.46855959    -0.79410
O229        O  0.75777743  0.51591065  0.54748892    -0.71610
O230        O  0.74795269  0.53047780  0.43813755    -2.32560
O231        O  0.74974088  0.46985910  0.51088335    -2.28770
O232        O  0.75486436  0.57583878  0.47551107    -0.73370
H233        H  0.69218214  0.56236078  0.52794501     0.78630
H234        H  0.74278761  0.53361297  0.41614996     0.79720
H235        H  0.82456745  0.55292682  0.51596373     0.81940
H236        H  0.74549628  0.44853285  0.51796511     0.79550
H237        H  0.67332694  0.59135551  0.41457549     0.42590
H238        H  0.81171628  0.59308487  0.40073002     0.41560
H239        H  0.86099696  0.52579969  0.44716561     0.41230
H240        H  0.86612223  0.50370401  0.53516832     0.39170
H241        H  0.81404554  0.43979819  0.56992385     0.42300
H242        H  0.74026568  0.46159897  0.58087773     0.37080
H243        H  0.64034787  0.50105950  0.52807265     0.43200
H244        H  0.64671317  0.57185846  0.49232654     0.39610
H245        H  0.86543905  0.47671591  0.50987916     0.44530
H246        H  0.71879632  0.43685035  0.56359303     0.43260
H247        H  0.64178357  0.53697865  0.48081076     0.43390
H248        H  0.84142534  0.59539827  0.42278761     0.43750
O249        O  0.45209200  0.54521000  0.65316984    -0.75120
O250        O  0.44489030  0.49580604  0.67445932    -0.54030
C251        C  0.43840481  0.51794449  0.65474873     0.78610
O252        O  0.61149271  0.53782690  0.68001478    -0.59720
O253        O  0.61374279  0.58426577  0.70688323    -0.52750
C254        C  0.62583761  0.56320986  0.68900438     0.70620
O255        O  0.54077814  0.45883963  0.66444087    -0.74280
O256        O  0.49191002  0.44930802  0.68597845    -0.54840
C257        C  0.51589820  0.44141673  0.66901398     0.76630
O258        O  0.51194720  0.62654615  0.69056487    -0.59420
O259        O  0.56424371  0.62646661  0.69974164    -0.52540
C260        C  0.53971684  0.63848707  0.68699785     0.73220
Zr261      Zr  0.49633599  0.57350283  0.67609780     2.54710
O262        O  0.51909326  0.57993090  0.62320147    -0.79990
O263        O  0.46057165  0.61283815  0.65449946    -0.93410
Zr264      Zr  0.56132688  0.50977912  0.68135379     2.64680
O265        O  0.56302365  0.51871214  0.62423534    -0.98360
O266        O  0.60430730  0.47233024  0.67673291    -0.80420
O267        O  0.50698959  0.51889589  0.67410759    -0.83780
O268        O  0.55084047  0.56427959  0.68245614    -2.18490
O269        O  0.49761690  0.62569295  0.76360883    -0.67170
O270        O  0.55097122  0.62679275  0.76678451    -0.51730
C271        C  0.52453259  0.64113926  0.76433450     0.71600
O272        O  0.52911995  0.44634669  0.77104396    -0.60080
O273        O  0.48036114  0.44652948  0.74876011    -0.52050
C274        C  0.50435490  0.43184819  0.75965296     0.73400
O275        O  0.60624851  0.51843044  0.77059792    -0.71470
O276        O  0.60685209  0.57152499  0.77068721    -0.50150
C277        C  0.62158211  0.54531142  0.77004816     0.74790
O278        O  0.42537413  0.54612574  0.76386607    -0.66800
O279        O  0.42703999  0.49803572  0.73993588    -0.54000
C280        C  0.41177990  0.52064937  0.75303898     0.73170
Zr281      Zr  0.48061101  0.56834747  0.76934014     2.77540
O282        O  0.48142593  0.56400795  0.82701325    -0.97550
O283        O  0.44060065  0.60325622  0.79067067    -0.78370
Zr284      Zr  0.54889942  0.50238617  0.77566133     2.70070
O285        O  0.53996349  0.51244813  0.83172350    -0.79620
O286        O  0.57958073  0.46501686  0.80684413    -0.98700
Zr287      Zr  0.48042936  0.49491810  0.71839589     2.21500
Zr288      Zr  0.56369407  0.58159765  0.73489915     2.11130
O289        O  0.53578560  0.55746143  0.77880526    -2.47390
O290        O  0.49330818  0.51300118  0.77033781    -0.79410
O291        O  0.50912913  0.59176387  0.72700747    -0.71610
O292        O  0.53533791  0.48448621  0.72432726    -2.32560
O293        O  0.46668348  0.54959984  0.71790976    -2.28770
O294        O  0.57539200  0.52701496  0.73234763    -0.73370
H295        H  0.56310068  0.57553452  0.66643569     0.78630
H296        H  0.54103554  0.46273484  0.72160207     0.79720
H297        H  0.54312598  0.56657384  0.79840706     0.81940
H298        H  0.44485970  0.55322030  0.71248340     0.79550
H299        H  0.61221219  0.46979482  0.69867032     0.42590
H300        H  0.59356553  0.45474272  0.79121004     0.41560
H301        H  0.52569874  0.49494214  0.83885882     0.41230
H302        H  0.48495757  0.54133407  0.83155990     0.39170
H303        H  0.43021914  0.61236582  0.77172843     0.42300
H304        H  0.44291967  0.61353579  0.66999940     0.37080
H305        H  0.50768030  0.56404131  0.61026023     0.43200
H306        H  0.57947049  0.53541241  0.62102106     0.39610
H307        H  0.50108537  0.57500115  0.83380627     0.44530
H308        H  0.45130008  0.60341075  0.63518498     0.43260
H309        H  0.57265140  0.49934872  0.61564701     0.43390
H310        H  0.59409340  0.47824261  0.81971373     0.43750
O311        O  0.33595943  0.44999050  0.45441448    -0.75120
O312        O  0.31445378  0.43851680  0.50289856    -0.54030
C313        C  0.33078511  0.43128468  0.47822116     0.78610
O314        O  0.33245761  0.61404484  0.48573373    -0.59720
O315        O  0.30277155  0.62286346  0.44176263    -0.52750
C316        C  0.32271565  0.63154202  0.46297577     0.70620
O317        O  0.35790295  0.52297918  0.53485433    -0.74280
O318        O  0.32486281  0.48518847  0.55579012    -0.54840
C319        C  0.35016789  0.50225849  0.55587898     0.76630
O320        O  0.33451323  0.54035014  0.39461903    -0.59420
O321        O  0.30441079  0.58483996  0.39349330    -0.52540
C322        C  0.32765662  0.56820532  0.38416051     0.73220
Zr323      Zr  0.32027697  0.50217716  0.43630540     2.54710
O324        O  0.37768994  0.49942023  0.43181099    -0.79990
O325        O  0.31322641  0.47169075  0.38813008    -0.93410
Zr326      Zr  0.32708213  0.56143178  0.50688410     2.64680
O327        O  0.38321484  0.57517838  0.50147118    -0.98360
O328        O  0.32726480  0.58963406  0.55701130    -0.80420
O329        O  0.32777487  0.50799758  0.49130401    -0.83780
O330        O  0.32091660  0.55557029  0.45229939    -2.18490
O331        O  0.22997919  0.51247215  0.39388383    -0.67170
O332        O  0.24205359  0.56473657  0.38858952    -0.51730
C333        C  0.23562632  0.53741130  0.37663589     0.71600
O334        O  0.23859330  0.53482654  0.57337585    -0.60080
O335        O  0.26057261  0.48576792  0.56997884    -0.52050
C336        C  0.24907985  0.50883291  0.58579446     0.73400
O337        O  0.24193383  0.61693789  0.50494597    -0.71470
O338        O  0.23718932  0.61918244  0.45192593    -0.50150
C339        C  0.24103459  0.63302460  0.47851368     0.74790
O340        O  0.22840052  0.43926065  0.46724514    -0.66800
O341        O  0.25135513  0.43668864  0.51566964    -0.54000
C342        C  0.23907588  0.42343766  0.49139662     0.73170
Zr343      Zr  0.22590473  0.49627555  0.45025252     2.77540
O344        O  0.17128898  0.50839742  0.46389988    -0.97550
O345        O  0.19105182  0.46367044  0.41767467    -0.78370
Zr346      Zr  0.23392762  0.55939786  0.51960427     2.70070
O347        O  0.17662668  0.55519227  0.51413893    -0.79620
O348        O  0.21154763  0.59157797  0.56155320    -0.98700
Zr349      Zr  0.28317884  0.48400765  0.51714082     2.21500
Zr350      Zr  0.27009910  0.57534755  0.43805056     2.11130
O351        O  0.22477967  0.55135425  0.46397676    -2.47390
O352        O  0.23191406  0.50433525  0.50582557    -0.79410
O353        O  0.26983223  0.52119887  0.42438095    -0.71610
O354        O  0.28414729  0.53786610  0.53363139    -2.32560
O355        O  0.27677843  0.47644612  0.46171441    -2.28770
O356        O  0.27781541  0.58287158  0.49323441    -0.73370
H357        H  0.33836408  0.56765137  0.44326026     0.78630
H358        H  0.29009942  0.54030625  0.55551597     0.79720
H359        H  0.20552218  0.56123806  0.45694376     0.81940
H360        H  0.27845170  0.45483173  0.45503148     0.79550
H361        H  0.34884875  0.59897285  0.55858044     0.42590
H362        H  0.22961077  0.60454541  0.56928924     0.41560
H363        H  0.17017092  0.53858117  0.52968737     0.41230
H364        H  0.16116026  0.51386775  0.44347861     0.39170
H365        H  0.20432913  0.44606765  0.41030866     0.42300
H366        H  0.30489476  0.45087150  0.39557040     0.37080
H367        H  0.38549277  0.51997599  0.44000683     0.43200
H368        H  0.38643252  0.57989049  0.47862286     0.39610
H369        H  0.16154567  0.48781990  0.47024394     0.44530
H370        H  0.33505469  0.46739627  0.38080509     0.43260
H371        H  0.38592599  0.59585467  0.51204614     0.43390
H372        H  0.19772286  0.60685623  0.55056611     0.43750
O373        O  0.84106749  0.59704257  0.00764182    -0.75120
O374        O  0.82100891  0.61301855  0.96047806    -0.54030
C375        C  0.83971887  0.61624291  0.98417330     0.78610
O376        O  0.80166686  0.43726257  0.96817508    -0.59720
O377        O  0.79769005  0.43112320  0.02080960    -0.52750
C378        C  0.80682985  0.42140326  0.99337251     0.70620
O379        O  0.84705023  0.52478652  0.92243298    -0.74280
O380        O  0.82392023  0.57190372  0.91174454    -0.54840
C381        C  0.84565777  0.55141061  0.90780904     0.76630
O382        O  0.79991932  0.52820904  0.07885857    -0.59420
O383        O  0.79889565  0.47591322  0.07799292    -0.52540
C384        C  0.80937712  0.50186383  0.08966545     0.73220
Zr385      Zr  0.82191097  0.54856501  0.03011764     2.54710
O386        O  0.87516018  0.52809697  0.03641495    -0.79990
O387        O  0.84305899  0.58118891  0.07268027    -0.93410
Zr388      Zr  0.81967618  0.49067616  0.95953538     2.64680
O389        O  0.87207691  0.47081415  0.97218276    -0.98360
O390        O  0.83035798  0.46736648  0.90818916    -0.80420
O391        O  0.82521478  0.54377353  0.97466420    -0.83780
O392        O  0.81839839  0.49503421  0.01535920    -2.18490
O393        O  0.73197240  0.54013793  0.07912178    -0.67170
O394        O  0.73504845  0.48651142  0.07901207    -0.51730
C395        C  0.73308551  0.51292956  0.09372581     0.71600
O396        O  0.73066767  0.52160873  0.89863467    -0.60080
O397        O  0.75672416  0.56938803  0.89949148    -0.52050
C398        C  0.74287160  0.54645865  0.88477067     0.73400
O399        O  0.73053672  0.44036848  0.96590896    -0.71470
O400        O  0.72854850  0.43677434  0.01902086    -0.50150
C401        C  0.73005422  0.42353458  0.99198981     0.74790
O402        O  0.73692623  0.61855173  0.00893282    -0.66800
O403        O  0.75610597  0.62140488  0.95843270    -0.54000
C404        C  0.74763852  0.63441104  0.98448412     0.73170
Zr405      Zr  0.72885485  0.56119674  0.02352291     2.77540
O406        O  0.67237845  0.55581231  0.01296510    -0.97550
O407        O  0.70253490  0.59589294  0.06082214    -0.78370
Zr408      Zr  0.72625399  0.49884885  0.95295849     2.70070
O409        O  0.67042984  0.50806783  0.96372331    -0.79620
O410        O  0.69529160  0.46894514  0.91452882    -0.98700
Zr411      Zr  0.78213923  0.57142592  0.95129458     2.21500
Zr412      Zr  0.76583605  0.47810797  0.03134672     2.11130
O413        O  0.72202087  0.50655971  0.00905077    -2.47390
O414        O  0.73008634  0.55390868  0.96718469    -0.79410
O415        O  0.77078097  0.53222738  0.04535058    -0.71610
O416        O  0.77763873  0.51743085  0.93572727    -2.32560
O417        O  0.78061759  0.57825545  0.00757827    -2.28770
O418        O  0.76911030  0.47245550  0.97552983    -0.73370
H419        H  0.83453783  0.48251220  0.02534310     0.78630
H420        H  0.78238017  0.51445288  0.91359614     0.79720
H421        H  0.70223494  0.49802159  0.01728528     0.81940
H422        H  0.78558844  0.59936240  0.01449353     0.79550
H423        H  0.80945212  0.46632494  0.89771223     0.42590
H424        H  0.71032387  0.45366200  0.90548802     0.41560
H425        H  0.66468595  0.52516482  0.94869802     0.41230
H426        H  0.66274473  0.55004014  0.03372634     0.39170
H427        H  0.71997172  0.60558737  0.07321325     0.42300
H428        H  0.83100893  0.60107775  0.07147887     0.37080
H429        H  0.88858992  0.54207868  0.02278715     0.43200
H430        H  0.86853359  0.45420703  0.98857993     0.39610
H431        H  0.66530701  0.57766954  0.00871084     0.44530
H432        H  0.86484180  0.58722651  0.06592444     0.43260
H433        H  0.88276327  0.48838741  0.98345778     0.43390
H434        H  0.68038821  0.45574711  0.92738407     0.43750
O435        O  0.01391416  0.45550109  0.80742952    -0.75120
O436        O  0.96459453  0.45651395  0.78559726    -0.54030
C437        C  0.98566660  0.44430846  0.80334794     0.78610
O438        O  0.03365974  0.61557534  0.81320222    -0.59720
O439        O  0.07853358  0.61830950  0.78293066    -0.52750
C440        C  0.06038552  0.62825709  0.80502049     0.70620
O441        O  0.96775626  0.52817069  0.82264707    -0.74280
O442        O  0.92945870  0.51305680  0.79055069    -0.54840
C443        C  0.93837211  0.52479971  0.81689958     0.76630
O444        O  0.10200217  0.51129165  0.77116475    -0.59420
O445        O  0.11393821  0.56209964  0.77728108    -0.52540
C446        C  0.11943458  0.53293539  0.78297558     0.73220
Zr447      Zr  0.05023491  0.49872903  0.79186026     2.54710
O448        O  0.06462249  0.50691989  0.84708998    -0.79990
O449        O  0.07757929  0.44841883  0.79740535    -0.93410
Zr450      Zr  0.99696027  0.57252183  0.80092989     2.64680
O451        O  0.99312533  0.58285874  0.85757622    -0.98360
O452        O  0.95280694  0.60892117  0.80301445    -0.80420
O453        O  0.99862109  0.51680567  0.79722349    -0.83780
O454        O  0.04952611  0.55490966  0.79609189    -2.18490
O455        O  0.10144220  0.51230612  0.70315038    -0.67170
O456        O  0.11203850  0.56432257  0.71088911    -0.51730
C457        C  0.12130961  0.53583967  0.70676974     0.71600
O458        O  0.92814725  0.56480562  0.71026922    -0.60080
O459        O  0.92153637  0.51287598  0.72336145    -0.52050
C460        C  0.91043058  0.54013905  0.71654091     0.73400
O461        O  0.00833513  0.63131844  0.71773184    -0.71470
O462        O  0.06167940  0.62968893  0.72428270    -0.50150
C463        C  0.03557461  0.64504772  0.72205896     0.74790
O464        O  0.01720970  0.45002059  0.69830031    -0.66800
O465        O  0.96873642  0.45128133  0.72253293    -0.54000
C466        C  0.99158432  0.43634504  0.70921396     0.73170
Zr467      Zr  0.04265278  0.50369342  0.69777228     2.77540
O468        O  0.03496006  0.51483981  0.64152637    -0.97550
O469        O  0.07243161  0.46658211  0.66591810    -0.78370
Zr470      Zr  0.98608887  0.57786804  0.70701730     2.70070
O471        O  0.99392316  0.57687372  0.64981445    -0.79620
O472        O  0.95231470  0.61768633  0.68297818    -0.98700
Zr473      Zr  0.96955624  0.50130858  0.75114504     2.19340
Zr474      Zr  0.06826728  0.57631754  0.74597588     2.11130
O475        O  0.03967426  0.56056728  0.69916556    -2.47390
O476        O  0.98898382  0.52161960  0.70150257    -0.79410
O477        O  0.06960081  0.52008401  0.74340635    -0.71610
O478        O  0.96629630  0.55777370  0.75625467    -2.32560
O479        O  0.02242225  0.48276581  0.74691198    -2.28770
O480        O  0.01530349  0.59330777  0.75233250    -0.73370
H481        H  0.06240067  0.56175514  0.81369883     0.78630
H482        H  0.94523347  0.56461822  0.76149571     0.79720
H483        H  0.04925022  0.57041949  0.68063817     0.81940
H484        H  0.02444569  0.46029197  0.74978639     0.79550
H485        H  0.93928781  0.60094791  0.82069322     0.42590
H486        H  0.94461121  0.63038783  0.70097695     0.41560
H487        H  0.97426520  0.56691194  0.64159203     0.41230
H488        H  0.01184274  0.51751656  0.63909950     0.39170
H489        H  0.08199918  0.45197246  0.68154553     0.42300
H490        H  0.06701598  0.43382965  0.78240779     0.37080
H491        H  0.04446552  0.51251247  0.85760824     0.43200
H492        H  0.01458233  0.57866795  0.86587123     0.39610
H493        H  0.04437824  0.53608959  0.63751906     0.44530
H494        H  0.07181444  0.44012790  0.81874748     0.43260
H495        H  0.99075735  0.60605266  0.85928514     0.43390
H496        H  0.96684132  0.63215517  0.67109174     0.43750
O497        O  0.17330210  0.45155929  0.97986528    -0.75120
O498        O  0.20904175  0.43200842  0.94569776    -0.54030
C499        C  0.18441191  0.42903676  0.96352144     0.78610
O500        O  0.18655521  0.59496350  0.97970336    -0.59720
O501        O  0.21085723  0.60201622  0.02698626    -0.52750
C502        C  0.19090115  0.60994267  0.00535102     0.70620
O503        O  0.19036534  0.52850870  0.90209439    -0.74280
O504        O  0.21494575  0.48147023  0.89374845    -0.54840
C505        C  0.19753971  0.50465912  0.88523781     0.76630
O506        O  0.19179737  0.50552461  0.06863679    -0.59420
O507        O  0.21806964  0.55246019  0.07579332    -0.52540
C508        C  0.19975296  0.52965231  0.08500068     0.73220
Zr509      Zr  0.20205243  0.48172050  0.01841421     2.54710
O510        O  0.14734677  0.47185078  0.03475516    -0.79990
O511        O  0.21410865  0.43675441  0.05303357    -0.93410
Zr512      Zr  0.20032320  0.54775756  0.95427085     2.64680
O513        O  0.14528769  0.53045978  0.95981594    -0.98360
O514        O  0.18632593  0.59011983  0.91766522    -0.80420
O515        O  0.20024943  0.49346843  0.96349832    -0.83780
O516        O  0.20005788  0.53674753  0.00915406    -2.18490
O517        O  0.28691398  0.49649107  0.07239613    -0.67170
O518        O  0.28170148  0.54958952  0.07338048    -0.51730
C519        C  0.28387435  0.52282499  0.08768287     0.71600
O520        O  0.29576876  0.53454402  0.89445963    -0.60080
O521        O  0.27679132  0.48387184  0.89131010    -0.52050
C522        C  0.28711194  0.50979437  0.87847285     0.73400
O523        O  0.28792601  0.60721730  0.96811078    -0.71470
O524        O  0.27767560  0.60769692  0.02077304    -0.50150
C525        C  0.28316324  0.62214190  0.99441506     0.74790
O526        O  0.29493883  0.42621381  0.99435734    -0.66800
O527        O  0.28044434  0.42855278  0.94247930    -0.54000
C528        C  0.28773026  0.41294042  0.96760824     0.73170
Zr529      Zr  0.29557996  0.48154781  0.01572315     2.77540
O530        O  0.35189315  0.49357929  0.00974009    -0.97550
O531        O  0.32253567  0.44533272  0.05143515    -0.78370
Zr532      Zr  0.29545220  0.55134831  0.95116772     2.70070
O533        O  0.35118041  0.54494490  0.96401318    -0.79620
O534        O  0.32560784  0.58713092  0.91632724    -0.98700
Zr535      Zr  0.24763978  0.47503699  0.94005647     2.21500
Zr536      Zr  0.24874797  0.55858699  0.02782336     2.11130
O537        O  0.29710958  0.53798338  0.00633087    -2.47390
O538        O  0.29661300  0.49529055  0.96048081    -0.79410
O539        O  0.24929034  0.50329128  0.03787392    -0.71610
O540        O  0.24730418  0.53063201  0.93097093    -2.32560
O541        O  0.24733447  0.46023938  0.99486851    -2.28770
O542        O  0.24785024  0.57116880  0.97298175    -0.73370
H543        H  0.18180660  0.54556122  0.01956336     0.78630
H544        H  0.24477871  0.53716246  0.90926396     0.79720
H545        H  0.31523714  0.54773894  0.01643367     0.81940
H546        H  0.24344101  0.43790692  0.99766607     0.79550
H547        H  0.20664941  0.59640923  0.90739078     0.42590
H548        H  0.31023350  0.60317989  0.90933328     0.41560
H549        H  0.35922792  0.53059434  0.94749264     0.41230
H550        H  0.35930997  0.49800571  0.03151806     0.39170
H551        H  0.30525440  0.43268094  0.06157040     0.42300
H552        H  0.21753003  0.41807305  0.03958634     0.37080
H553        H  0.13578337  0.49054113  0.02689178     0.43200
H554        H  0.13744595  0.54099452  0.97911813     0.39610
H555        H  0.36154895  0.47312232  0.00427491     0.44530
H556        H  0.19416664  0.43204865  0.06473925     0.43260
H557        H  0.13420229  0.54081073  0.94197337     0.43390
H558        H  0.34025414  0.59880113  0.93046543     0.43750
O559        O  0.01888133  0.59899919  0.17129974    -0.75120
O560        O  0.96845925  0.59833190  0.19072189    -0.54030
C561        C  0.99166061  0.61153892  0.17572007     0.78610
O562        O  0.03005544  0.43966446  0.15593544    -0.59720
O563        O  0.07234425  0.43338080  0.18873799    -0.52750
C564        C  0.05654883  0.42715773  0.16363307     0.70620
O565        O  0.94330644  0.49865173  0.15538395    -0.74280
O566        O  0.92606920  0.54011698  0.18427075    -0.54840
C567        C  0.92242004  0.51888651  0.16277409     0.76630
O568        O  0.10233227  0.53910778  0.19879827    -0.59420
O569        O  0.10834985  0.48682008  0.19607882    -0.52540
C570        C  0.11747555  0.51512617  0.18913962     0.73220
Zr571      Zr  0.04931344  0.55156640  0.18253438     2.54710
O572        O  0.05994603  0.54318660  0.12646200    -0.79990
O573        O  0.08464751  0.59668739  0.17258167    -0.93410
Zr574      Zr  0.99267778  0.47902835  0.17315339     2.64680
O575        O  0.99147472  0.48301120  0.11553453    -0.98360
O576        O  0.96074786  0.43059894  0.17120180    -0.80420
O577        O  0.99626541  0.53503724  0.17537972    -0.83780
O578        O  0.04547650  0.49619774  0.17824576    -2.18490
O579        O  0.09882108  0.53501440  0.27019033    -0.67170
O580        O  0.10401445  0.48238276  0.26483806    -0.51730
C581        C  0.11627839  0.51012050  0.26724801     0.71600
O582        O  0.92285469  0.48794078  0.26350449    -0.60080
O583        O  0.91875704  0.53980763  0.24902967    -0.52050
C584        C  0.90646425  0.51283642  0.25677922     0.73400
O585        O  0.99936058  0.41912035  0.25722020    -0.71470
O586        O  0.05239196  0.41973343  0.24813863    -0.50150
C587        C  0.02580482  0.40479319  0.25209027     0.74790
O588        O  0.01819762  0.59963065  0.27756780    -0.66800
O589        O  0.96993798  0.59887498  0.25356514    -0.54000
C590        C  0.99339871  0.61374450  0.26654126     0.73170
Zr591      Zr  0.04065300  0.54539430  0.27674798     2.77540
O592        O  0.02956867  0.52884240  0.33120974    -0.97550
O593        O  0.07213414  0.57922142  0.31124226    -0.78370
Zr594      Zr  0.97998571  0.47336569  0.26701929     2.70070
O595        O  0.98713850  0.47537540  0.32421660    -0.79620
O596        O  0.94322424  0.43462440  0.29052993    -0.98700
Zr597      Zr  0.96850621  0.55058567  0.22219562     2.21500
Zr598      Zr  0.06195754  0.47316711  0.22771352     2.11130
O599        O  0.03432369  0.48890171  0.27489845    -2.47390
O600        O  0.98594506  0.52953613  0.27199970    -0.79410
O601        O  0.06714105  0.52914942  0.23070656    -0.71610
O602        O  0.96310305  0.49456735  0.21789402    -2.32560
O603        O  0.02238924  0.56752237  0.22788899    -2.28770
O604        O  0.00844433  0.45688585  0.22156603    -0.73370
H605        H  0.05846500  0.49002245  0.16051185     0.78630
H606        H  0.94186270  0.48754346  0.21314789     0.79720
H607        H  0.04315926  0.47871834  0.29338763     0.81940
H608        H  0.02625851  0.58992958  0.22613834     0.79550
H609        H  0.93974903  0.43654138  0.17964481     0.42590
H610        H  0.93615122  0.42136089  0.27258609     0.41560
H611        H  0.96948399  0.48851981  0.33182989     0.41230
H612        H  0.05059905  0.52454348  0.34048125     0.39170
H613        H  0.08789519  0.58964439  0.29697105     0.42300
H614        H  0.08509565  0.60825655  0.19284599     0.37080
H615        H  0.04143186  0.55227587  0.11552253     0.43200
H616        H  0.01063246  0.49565518  0.10986332     0.39610
H617        H  0.02237346  0.54822733  0.34191222     0.44530
H618        H  0.07425954  0.61082458  0.15710472     0.43260
H619        H  0.99585062  0.46143029  0.10789080     0.43390
H620        H  0.95646301  0.42048341  0.30361054     0.43750
O621        O  0.92830380  0.34321142  0.00987250    -0.75120
O622        O  0.91664308  0.32217408  0.96142294    -0.54030
C623        C  0.90962152  0.33805023  0.98636970     0.78610
O624        O  0.09233560  0.33187559  0.96497811    -0.59720
O625        O  0.10270922  0.30731654  0.01197766    -0.52750
C626        C  0.11073788  0.32418665  0.98763730     0.70620
O627        O  0.00816029  0.35092250  0.90578450    -0.74280
O628        O  0.95860084  0.32881529  0.90358686    -0.54840
C629        C  0.98084447  0.34704688  0.89298716     0.76630
O630        O  0.02088473  0.34227939  0.06488214    -0.59420
O631        O  0.06479650  0.31131213  0.06502395    -0.52540
C632        C  0.04859461  0.33463064  0.07489775     0.73220
Zr633      Zr  0.98225457  0.32928295  0.02390356     2.54710
O634        O  0.98457791  0.38678010  0.01973165    -0.79990
O635        O  0.95480239  0.33203536  0.07451912    -0.93410
Zr636      Zr  0.03798138  0.33323854  0.95135936     2.64680
O637        O  0.03921409  0.38827994  0.96793794    -0.98360
O638        O  0.07227220  0.35009765  0.90754312    -0.80420
O639        O  0.98497443  0.33530710  0.96803658    -0.83780
O640        O  0.03524486  0.32805535  0.00645946    -2.18490
O641        O  0.99270782  0.23737396  0.06969650    -0.67170
O642        O  0.04544486  0.24892319  0.07169217    -0.51730
C643        C  0.01863744  0.24231105  0.08525384     0.71600
O644        O  0.01198100  0.24547011  0.88812591    -0.60080
O645        O  0.96337872  0.26801928  0.89183468    -0.52050
C646        C  0.98683271  0.25750960  0.87544878     0.73400
O647        O  0.09336828  0.24635772  0.95315177    -0.71470
O648        O  0.09869900  0.24473861  0.00627154    -0.50150
C649        C  0.11096387  0.24591130  0.97836246     0.74790
O650        O  0.91545157  0.23982529  0.00124568    -0.66800
O651        O  0.91444462  0.25595974  0.95025187    -0.54000
C652        C  0.90021887  0.24993915  0.97649971     0.73170
Zr653      Zr  0.97348597  0.23448092  0.01446243     2.77540
O654        O  0.98216847  0.17917050  0.00180464    -0.97550
O655        O  0.93994419  0.20253761  0.04987309    -0.78370
Zr656      Zr  0.03506663  0.23916475  0.94222593     2.70070
O657        O  0.02700860  0.18244952  0.94993275    -0.79620
O658        O  0.06659575  0.21174732  0.90285700    -0.98700
Zr659      Zr  0.96063954  0.28963713  0.94520656     2.21500
Zr660      Zr  0.05426786  0.27688252  0.02123614     2.11130
O661        O  0.02831847  0.23157957  0.99845884    -2.47390
O662        O  0.98021493  0.23837923  0.95815879    -0.79410
O663        O  0.00038500  0.27844964  0.03758908    -0.71610
O664        O  0.01438696  0.28944730  0.92793187    -2.32560
O665        O  0.95536114  0.28553465  0.00146674    -2.28770
O666        O  0.05940197  0.28361277  0.96544987    -0.73370
H667        H  0.04816371  0.34511695  0.01465965     0.78630
H668        H  0.01799398  0.29508853  0.90606071     0.79720
H669        H  0.03792314  0.21226880  0.00582801     0.81940
H670        H  0.93429191  0.28802274  0.00962848     0.79550
H671        H  0.07808045  0.37235496  0.91220160     0.42590
H672        H  0.08157740  0.22806376  0.89444536     0.41560
H673        H  0.01043835  0.17664531  0.93439838     0.41230
H674        H  0.98796964  0.16909369  0.02221777     0.39170
H675        H  0.92721057  0.21802592  0.06169577     0.42300
H676        H  0.93457903  0.32065540  0.07077330     0.37080
H677        H  0.97370133  0.39185127  0.99960298     0.43200
H678        H  0.06197878  0.39328581  0.97107357     0.39610
H679        H  0.96084403  0.17045526  0.99694988     0.44530
H680        H  0.94883030  0.35450738  0.07639307     0.43260
H681        H  0.03338726  0.40041967  0.94868998     0.43390
H682        H  0.08002794  0.19708518  0.91512570     0.43750
O683        O  0.94955420  0.70890409  0.97294114    -0.75120
O684        O  0.93827547  0.73065627  0.02113523    -0.54030
C685        C  0.93198770  0.71310877  0.99721589     0.78610
O686        O  0.11135540  0.73567593  0.01921655    -0.59720
O687        O  0.11914212  0.73653784  0.96700483    -0.52750
C688        C  0.12612604  0.72633207  0.99481591     0.70620
O689        O  0.02478238  0.70415502  0.07466014    -0.74280
O690        O  0.97699567  0.72843158  0.07639800    -0.54840
C691        C  0.99751406  0.70935381  0.08740760     0.76630
O692        O  0.03327708  0.71455222  0.90866268    -0.59420
O693        O  0.08141509  0.73978326  0.90954911    -0.52540
C694        C  0.06074940  0.72122910  0.89693711     0.73220
Zr695      Zr  0.00126311  0.72420263  0.95521117     2.54710
O696        O  0.00218147  0.66664294  0.95414560    -0.79990
O697        O  0.96693968  0.72612210  0.90898362    -0.93410
Zr698      Zr  0.05741446  0.71810569  0.02807508     2.64680
O699        O  0.06061598  0.66225963  0.01391841    -0.98360
O700        O  0.09054929  0.69512166  0.06914029    -0.80420
O701        O  0.00434683  0.71887687  0.01119074    -0.83780
O702        O  0.05413598  0.72220013  0.97192853    -2.18490
O703        O  0.01801952  0.81318917  0.90626493    -0.67170
O704        O  0.07028278  0.80118135  0.90614195    -0.51730
C705        C  0.04449379  0.80789873  0.89146581     0.71600
O706        O  0.03605259  0.80764786  0.08942363    -0.60080
O707        O  0.98492079  0.78988747  0.08531299    -0.52050
C708        C  0.00930676  0.79789532  0.10177812     0.73400
O709        O  0.11774549  0.80454325  0.02092266    -0.71470
O710        O  0.11868873  0.80837621  0.96795734    -0.50150
C711        C  0.13315928  0.80458961  0.99409378     0.74790
O712        O  0.94091438  0.81597439  0.97689254    -0.66800
O713        O  0.93545045  0.79657043  0.02704764    -0.54000
C714        C  0.92365496  0.80646467  0.00090037     0.73170
Zr715      Zr  0.99886082  0.81835219  0.96236246     2.77540
O716        O  0.01267686  0.87339762  0.97299089    -0.97550
O717        O  0.96656837  0.85110283  0.92788227    -0.78370
Zr718      Zr  0.05999333  0.81255705  0.03508998     2.70070
O719        O  0.05635277  0.86954718  0.02756461    -0.79620
O720        O  0.09303621  0.83667387  0.07576806    -0.98700
Zr721      Zr  0.98234564  0.76551363  0.03338944     2.21500
Zr722      Zr  0.07615731  0.77255380  0.95598554     2.11130
O723        O  0.05334539  0.81895420  0.97872995    -2.47390
O724        O  0.00538320  0.81560095  0.01887479    -0.79410
O725        O  0.02267817  0.77340937  0.93983245    -0.71610
O726        O  0.03590563  0.76311365  0.05086617    -2.32560
O727        O  0.97664536  0.76862112  0.97727874    -2.28770
O728        O  0.08107923  0.76707217  0.01203206    -0.73370
H729        H  0.06513337  0.70523481  0.96169499     0.78630
H730        H  0.03894706  0.75801514  0.07288226     0.79720
H731        H  0.06419991  0.83780610  0.97099511     0.81940
H732        H  0.95518773  0.76594637  0.97008596     0.79550
H733        H  0.09449562  0.71265617  0.08409285     0.42590
H734        H  0.10555596  0.81900631  0.08449304     0.41560
H735        H  0.03946596  0.87591231  0.04248015     0.41230
H736        H  0.01840504  0.88263094  0.95202714     0.39170
H737        H  0.95142560  0.83608485  0.91798327     0.42300
H738        H  0.94964983  0.74052765  0.91492024     0.37080
H739        H  0.99679564  0.65994124  0.97610933     0.43200
H740        H  0.06122136  0.66099697  0.99053986     0.39610
H741        H  0.99236220  0.88334532  0.97868837     0.44530
H742        H  0.95673110  0.70489663  0.90815317     0.43260
H743        H  0.08190322  0.65559544  0.02078607     0.43390
H744        H  0.10866919  0.85008200  0.06404780     0.43750
O745        O  0.62063500  0.81045630  0.00754061    -0.75120
O746        O  0.62444774  0.81645361  0.95500884    -0.54030
C747        C  0.63551342  0.82046299  0.98300571     0.78610
O748        O  0.53912390  0.72922184  0.06969763    -0.59720
O749        O  0.48934622  0.74904345  0.07064275    -0.52750
C750        C  0.51406887  0.73857829  0.08485965     0.70620
O751        O  0.61804532  0.74039374  0.00153250    -0.74280
O752        O  0.62251383  0.75066419  0.94903909    -0.54840
C753        C  0.63522084  0.74618163  0.97631771     0.76630
O754        O  0.54382609  0.83233242  0.07166666    -0.59420
O755        O  0.49405482  0.81043778  0.07405799    -0.52540
C756        C  0.51770381  0.82552814  0.08589290     0.73220
Zr757      Zr  0.56795057  0.82622429  0.02042843     2.54710
O758        O  0.60366009  0.84519377  0.06151150    -0.79990
O759        O  0.57464528  0.88252201  0.00879143    -0.93410
Zr760      Zr  0.55988252  0.73177668  0.01365490     2.64680
O761        O  0.59101391  0.69305555  0.04249515    -0.98360
O762        O  0.54845708  0.67832000  0.99547305    -0.80420
O763        O  0.58542412  0.77910574  0.99707816    -0.83780
O764        O  0.54242583  0.77936059  0.03734608    -2.18490
O765        O  0.45620370  0.85153865  0.97729874    -0.67170
O766        O  0.44561265  0.82279458  0.02236785    -0.51730
C767        C  0.43873472  0.84381075  0.00128495     0.71600
O768        O  0.51503886  0.75603443  0.89070656    -0.60080
O769        O  0.56847870  0.76358348  0.88960960    -0.52050
C770        C  0.54154358  0.76080115  0.87567489     0.73400
O771        O  0.43963551  0.74467268  0.96273123    -0.71470
O772        O  0.43611341  0.75955709  0.01444454    -0.50150
C773        C  0.42345478  0.75112743  0.98806371     0.74790
O774        O  0.53620605  0.85248864  0.90666878    -0.66800
O775        O  0.58188707  0.82485837  0.90022271    -0.54000
C776        C  0.56209216  0.84620463  0.89208823     0.73170
Zr777      Zr  0.50681471  0.83808471  0.95409120     2.77540
O778        O  0.47382523  0.85225613  0.90912966    -0.97550
O779        O  0.51608023  0.89375515  0.96581049    -0.78370
Zr780      Zr  0.49635361  0.74399540  0.94537982     2.70070
O781        O  0.45983293  0.72388336  0.90553739    -0.79620
O782        O  0.50334089  0.68693502  0.94564467    -0.98700
Zr783      Zr  0.57779148  0.78515528  0.94179114     2.21500
Zr784      Zr  0.48758888  0.78389478  0.02454213     2.11130
O785        O  0.47912661  0.79135217  0.96915206    -2.47390
O786        O  0.52335021  0.79113482  0.92968986    -0.79410
O787        O  0.51362177  0.83247332  0.00945609    -0.71610
O788        O  0.55128951  0.73673319  0.95757687    -2.32560
O789        O  0.56108408  0.83338841  0.96556073    -2.28770
O790        O  0.50459767  0.73576616  0.00093601    -0.73370
H791        H  0.54780824  0.77966978  0.05940211     0.78630
H792        H  0.55993877  0.71911896  0.94614405     0.79720
H793        H  0.45749942  0.79580480  0.96377229     0.81940
H794        H  0.57320640  0.85141601  0.95772255     0.79550
H795        H  0.56785947  0.67202241  0.98399495     0.42590
H796        H  0.48180333  0.67797969  0.94933140     0.41560
H797        H  0.44967328  0.74297681  0.89667731     0.41230
H798        H  0.46040240  0.83323831  0.90552579     0.39170
H799        H  0.50720604  0.89652602  0.98737156     0.42300
H800        H  0.59787304  0.88587135  0.00705671     0.37080
H801        H  0.61145954  0.82573088  0.07191637     0.43200
H802        H  0.60404470  0.70583316  0.05712452     0.39610
H803        H  0.45922218  0.86850673  0.91708451     0.44530
H804        H  0.56863510  0.89312782  0.02872767     0.43260
H805        H  0.57574920  0.68144638  0.05639494     0.43390
H806        H  0.50833560  0.68172835  0.92334353     0.43750
O807        O  0.60415667  0.05550439  0.80772525    -0.75120
O808        O  0.61746603  0.01163449  0.77997509    -0.54030
C809        C  0.62353292  0.03391258  0.79973322     0.78610
O810        O  0.44069081  0.01701526  0.79882876    -0.59720
O811        O  0.43446657  0.06829805  0.78439730    -0.52750
C812        C  0.42530221  0.04279107  0.79892904     0.70620
O813        O  0.52705917  0.95769216  0.81129584    -0.74280
O814        O  0.57459757  0.95692254  0.78514829    -0.54840
C815        C  0.55417046  0.94564006  0.80493009     0.76630
O816        O  0.52634296  0.12575356  0.79932849    -0.59420
O817        O  0.47724007  0.12447136  0.77733149    -0.52540
C818        C  0.49955525  0.13829155  0.79273522     0.73220
Zr819      Zr  0.55271922  0.07523212  0.79454691     2.54710
O820        O  0.54363286  0.07179744  0.85154758    -0.79990
O821        O  0.59104319  0.11789805  0.80271883    -0.93410
Zr822      Zr  0.49536054  0.00307681  0.79601101     2.64680
O823        O  0.49333597  0.01164410  0.85301059    -0.98360
O824        O  0.46449416  0.95424056  0.80137693    -0.80420
O825        O  0.54885322  0.01942395  0.79624389    -0.83780
O826        O  0.49935474  0.05896714  0.79584883    -2.18490
O827        O  0.53709655  0.12809228  0.70831856    -0.67170
O828        O  0.48429421  0.12711382  0.71837537    -0.51730
C829        C  0.51071483  0.14227210  0.71397199     0.71600
O830        O  0.51595671  0.94681538  0.70186084    -0.60080
O831        O  0.56578037  0.94863239  0.72248818    -0.52050
C832        C  0.54176180  0.93325159  0.71113564     0.73400
O833        O  0.43619077  0.01259532  0.71122532    -0.71470
O834        O  0.43037448  0.06546931  0.71685933    -0.50150
C835        C  0.41869583  0.03745556  0.71403600     0.74790
O836        O  0.61331032  0.06022997  0.70056291    -0.66800
O837        O  0.61511379  0.00815944  0.71241708    -0.54000
C838        C  0.62895232  0.03499847  0.70777975     0.73170
Zr839      Zr  0.55556956  0.07341828  0.69921309     2.77540
O840        O  0.54323188  0.06519992  0.64351087    -0.97550
O841        O  0.58676980  0.11129196  0.66778206    -0.78370
Zr842      Zr  0.49363029  0.00122661  0.70154347     2.70070
O843        O  0.49870141  0.01326348  0.64516461    -0.79620
O844        O  0.46013256  0.96375935  0.67308804    -0.98700
Zr845      Zr  0.57097916  0.00005733  0.74811859     2.21500
Zr846      Zr  0.47774646  0.07685272  0.74664178     2.11130
O847        O  0.50052217  0.05760635  0.69829775    -2.47390
O848        O  0.54853901  0.01710939  0.69903481    -0.79410
O849        O  0.53176198  0.09250176  0.74610362    -0.71610
O850        O  0.51703728  0.98319129  0.74955717    -2.32560
O851        O  0.57715696  0.05625007  0.74821434    -2.28770
O852        O  0.47143048  0.02096011  0.74865714    -0.73370
H853        H  0.48862439  0.06789108  0.81389189     0.78630
H854        H  0.51401793  0.96091176  0.75362102     0.79720
H855        H  0.48977694  0.06639962  0.68013376     0.81940
H856        H  0.59859214  0.06371387  0.75101475     0.79550
H857        H  0.45513450  0.95099336  0.78014454     0.42590
H858        H  0.44639729  0.95383305  0.68961999     0.41560
H859        H  0.51482233  0.99835725  0.63744692     0.41230
H860        H  0.53677776  0.08620414  0.63544526     0.39170
H861        H  0.59887818  0.12365338  0.68356022     0.42300
H862        H  0.60852481  0.11412392  0.78753421     0.37080
H863        H  0.55497268  0.05256535  0.85833236     0.43200
H864        H  0.47332069  0.02301280  0.85663267     0.39610
H865        H  0.56393923  0.06136176  0.63321132     0.44530
H866        H  0.60017246  0.11409668  0.82398042     0.43260
H867        H  0.48946718  0.99031891  0.86228707     0.43390
H868        H  0.44564733  0.97686811  0.66027392     0.43750
O869        O  0.53023294  0.31362389  0.90094177    -0.75120
O870        O  0.47721241  0.31433285  0.89573438    -0.54030
C871        C  0.50514284  0.31421099  0.88342117     0.78610
O872        O  0.58306187  0.20494028  0.96007421    -0.59720
O873        O  0.58718848  0.21894232  0.01195895    -0.52750
C874        C  0.59799359  0.20633111  0.98646183     0.70620
O875        O  0.50645602  0.22414387  0.89065103    -0.74280
O876        O  0.46247623  0.25404547  0.88492854    -0.54840
C877        C  0.48354270  0.23524865  0.87430406     0.76630
O878        O  0.59526346  0.30849087  0.98077333    -0.59420
O879        O  0.59478844  0.27755773  0.02552175    -0.52540
C880        C  0.60939786  0.29370676  0.00368371     0.73220
Zr881      Zr  0.54086971  0.31488446  0.95893206     2.54710
O882        O  0.58022939  0.34716091  0.93050926    -0.79990
O883        O  0.53085165  0.36991770  0.97171928    -0.93410
Zr884      Zr  0.53186237  0.22188666  0.94142579     2.64680
O885        O  0.56591975  0.21867661  0.89495097    -0.98360
O886        O  0.52226248  0.16500078  0.93932238    -0.80420
O887        O  0.51656803  0.27393350  0.92968932    -0.83780
O888        O  0.55638575  0.26246923  0.97040926    -2.18490
O889        O  0.48889583  0.29606323  0.07841121    -0.67170
O890        O  0.53671565  0.27185852  0.07768996    -0.51730
C891        C  0.51286811  0.28337878  0.09260960     0.71600
O892        O  0.41755408  0.20768188  0.96674456    -0.60080
O893        O  0.41834186  0.24098056  0.92377339    -0.52050
C894        C  0.40800768  0.21654602  0.93899597     0.73400
O895        O  0.48163153  0.19065390  0.05113682    -0.71470
O896        O  0.53158926  0.20928565  0.06190497    -0.50150
C897        C  0.50687822  0.19193489  0.06802975     0.74790
O898        O  0.41525924  0.30109049  0.00757266    -0.66800
O899        O  0.41505866  0.30704408  0.95440733    -0.54000
C900        C  0.40033577  0.30285403  0.98096879     0.73170
Zr901      Zr  0.47169708  0.30653986  0.02253570     2.77540
O902        O  0.43634816  0.33511745  0.05764980    -0.97550
O903        O  0.48241367  0.36323931  0.01939851    -0.78370
Zr904      Zr  0.46277838  0.21429796  0.00233389     2.70070
O905        O  0.41651976  0.20858543  0.03673690    -0.79620
O906        O  0.46266917  0.15815933  0.98981024    -0.98700
Zr907      Zr  0.46103043  0.27714212  0.93724107     2.21500
Zr908      Zr  0.54252419  0.25210418  0.02430659     2.11130
O909        O  0.48679689  0.25388678  0.03387256    -2.47390
O910        O  0.44784115  0.26637987  0.99106538    -0.79410
O911        O  0.52777490  0.30559532  0.01363760    -0.71610
O912        O  0.47716460  0.22433276  0.94928952    -2.32560
O913        O  0.48486348  0.31874380  0.96807650    -2.28770
O914        O  0.51840356  0.21034121  0.99472305    -0.73370
H915        H  0.57840009  0.26020471  0.96517484     0.78630
H916        H  0.46790365  0.20863573  0.93554341     0.79720
H917        H  0.48080630  0.24792888  0.05517624     0.81940
H918        H  0.47684707  0.33905312  0.96150426     0.79550
H919        H  0.50779507  0.16209068  0.92112723     0.42590
H920        H  0.48112492  0.14953429  0.00122201     0.41560
H921        H  0.41219745  0.23038340  0.04379618     0.41230
H922        H  0.42241142  0.31861979  0.06735240     0.39170
H923        H  0.49881669  0.36707820  0.03568787     0.42300
H924        H  0.52879475  0.38075479  0.95092421     0.37080
H925        H  0.59424998  0.33174312  0.92014623     0.43200
H926        H  0.58225876  0.23536670  0.89813654     0.39610
H927        H  0.44974534  0.34284418  0.07525087     0.44530
H928        H  0.55111641  0.37802849  0.98043697     0.43260
H929        H  0.57707863  0.19836734  0.89725691     0.43390
H930        H  0.44397374  0.14923320  0.00123329     0.43750
O931        O  0.51392113  0.95000798  0.15583009    -0.75120
O932        O  0.54036661  0.92493201  0.19435985    -0.54030
C933        C  0.52524371  0.92500829  0.16806131     0.78610
O934        O  0.52702729  0.09927988  0.18797093    -0.59720
O935        O  0.47408418  0.10008080  0.18890080    -0.52750
C936        C  0.50085381  0.11056210  0.17824728     0.70620
O937        O  0.59036648  0.01434604  0.16715911    -0.74280
O938        O  0.59316383  0.96673929  0.19316331    -0.54840
C939        C  0.60354335  0.98771995  0.17371346     0.76630
O940        O  0.42150558  0.99691220  0.18977416    -0.59420
O941        O  0.42236905  0.04990778  0.19185867    -0.52540
C942        C  0.40943659  0.02351567  0.18322264     0.73220
Zr943      Zr  0.47514543  0.98231519  0.18078746     2.54710
O944        O  0.45876558  0.99670538  0.12733611    -0.79990
O945        O  0.44563279  0.93223247  0.17977263    -0.93410
Zr946      Zr  0.54332950  0.04541283  0.17952433     2.64680
O947        O  0.53098919  0.04870354  0.12321903    -0.98360
O948        O  0.58815885  0.07916994  0.16408151    -0.80420
O949        O  0.53031484  0.99136082  0.18062849    -0.83780
O950        O  0.48766193  0.03676708  0.17863382    -2.18490
O951        O  0.41964046  0.99626215  0.26472748    -0.67170
O952        O  0.41963363  0.04936283  0.25789502    -0.51730
C953        C  0.40491061  0.02262699  0.25978753     0.71600
O954        O  0.60057686  0.02599021  0.27364741    -0.60080
O955        O  0.59871189  0.97488357  0.25774207    -0.52050
C956        C  0.61429083  0.99978155  0.26587129     0.73400
O957        O  0.52937988  0.10235860  0.26604168    -0.71470
O958        O  0.47663254  0.10493415  0.25687173    -0.50150
C959        C  0.50367579  0.11833608  0.26142098     0.74790
O960        O  0.49165381  0.92192331  0.27327032    -0.66800
O961        O  0.54387249  0.92277080  0.26141763    -0.54000
C962        C  0.51770762  0.90756557  0.26585478     0.73170
Zr963      Zr  0.47513526  0.97912620  0.27552553     2.77540
O964        O  0.48189524  0.99090863  0.33152546    -0.97550
O965        O  0.43742001  0.94590722  0.30506687    -0.78370
Zr966      Zr  0.54455826  0.04562444  0.27429911     2.70070
O967        O  0.53226722  0.03975280  0.33053535    -0.79620
O968        O  0.58144923  0.07986486  0.30278107    -0.98700
Zr969      Zr  0.54989888  0.96946863  0.22866514     2.21500
Zr970      Zr  0.46774200  0.05722146  0.22744293     2.11130
O971        O  0.48836563  0.03493938  0.27590454    -2.47390
O972        O  0.53097903  0.99016607  0.27738637    -0.79410
O973        O  0.45631342  0.00259446  0.22854480    -0.71610
O974        O  0.56449280  0.02416960  0.22623885    -2.32560
O975        O  0.49471747  0.95856908  0.22704484    -2.28770
O976        O  0.52350882  0.06701553  0.22706443    -0.73370
H977        H  0.47806964  0.04671063  0.16041775     0.78630
H978        H  0.58670941  0.02825208  0.22259955     0.79720
H979        H  0.47877136  0.04502484  0.29395828     0.81940
H980        H  0.48957050  0.93677335  0.22293560     0.79550
H981        H  0.59937831  0.08340949  0.18420657     0.42590
H982        H  0.59112305  0.09374956  0.28621696     0.41560
H983        H  0.54766150  0.02410146  0.33838922     0.41230
H984        H  0.46050894  0.99666422  0.33907923     0.39170
H985        H  0.42326139  0.93686257  0.28871917     0.42300
H986        H  0.43382560  0.93201763  0.20012284     0.37080
H987        H  0.47879973  0.00205911  0.11605381     0.43200
H988        H  0.51840422  0.06814742  0.12086070     0.39610
H989        H  0.48605331  0.97020046  0.34173502     0.44530
H990        H  0.46119645  0.91522952  0.18268240     0.43260
H991        H  0.55150595  0.05398524  0.11281650     0.43390
H992        H  0.56799804  0.09407623  0.31542093     0.43750
O993        O  0.34484017  0.95055778  0.97436836    -0.75120
O994        O  0.32303727  0.94335065  0.02344200    -0.54030
C995        C  0.34195774  0.93559436  0.00102422     0.78610
O996        O  0.33285130  0.10742564  0.97260902    -0.59720
O997        O  0.30007088  0.11101907  0.92977678    -0.52750
C998        C  0.32414593  0.11969494  0.94609807     0.70620
O999        O  0.33284440  0.04703247  0.06064230    -0.74280
O1000       O  0.31265441  0.99730549  0.06937315    -0.54840
C1001       C  0.32761729  0.02253308  0.07821463     0.76630
O1002       O  0.30752493  0.01521953  0.89287870    -0.59420
O1003       O  0.30191969  0.06716708  0.88966090    -0.52540
C1004       C  0.31522083  0.04202724  0.88038032     0.73220
Zr1005     Zr  0.32491138  0.99593793  0.94455422     2.54710
O1006       O  0.37905042  0.01417645  0.93458272    -0.79990
O1007       O  0.34038791  0.95397655  0.90858294    -0.93410
Zr1008     Zr  0.31906574  0.06351279  0.00756092     2.64680
O1009       O  0.37647938  0.06426847  0.01280631    -0.98360
O1010       O  0.31372220  0.11171742  0.03806521    -0.80420
O1011       O  0.32666618  0.00876769  0.99918513    -0.83780
O1012       O  0.31880427  0.05014063  0.95341673    -2.18490
O1013       O  0.23761764  0.99811794  0.89104738    -0.67170
O1014       O  0.23439604  0.05116072  0.89000732    -0.51730
C1015       C  0.23715365  0.02485554  0.87557184     0.71600
O1016       O  0.22830626  0.03198506  0.07017430    -0.60080
O1017       O  0.24906604  0.98294783  0.06992252    -0.52050
C1018       C  0.23914914  0.00723532  0.08477431     0.73400
O1019       O  0.22998121  0.10709421  0.99784828    -0.71470
O1020       O  0.23562002  0.11089567  0.94457652    -0.50150
C1021       C  0.23260736  0.12368582  0.97188762     0.74790
O1022       O  0.23933973  0.92688991  0.96915453    -0.66800
O1023       O  0.26157995  0.92862094  0.01818339    -0.54000
C1024       C  0.25152414  0.91325709  0.99392462     0.73170
Zr1025     Zr  0.23141984  0.98180545  0.94829586     2.77540
O1026       O  0.17386220  0.98116409  0.95355157    -0.97550
O1027       O  0.20873384  0.94215096  0.91319107    -0.78370
Zr1028     Zr  0.22464630  0.05012473  0.01341832     2.70070
O1029       O  0.16902593  0.03975025  0.00174248    -0.79620
O1030       O  0.19200443  0.08062449  0.04947099    -0.98700
Zr1031     Zr  0.28197699  0.98242554  0.02301630     2.21500
Zr1032     Zr  0.26702259  0.06448951  0.93480731     2.11130
O1033       O  0.22229512  0.03707126  0.95814779    -2.47390
O1034       O  0.23019969  0.99452901  0.00378745    -0.79410
O1035       O  0.27452673  0.00959265  0.92505759    -0.71610
O1036       O  0.27563565  0.03742560  0.03206352    -2.32560
O1037       O  0.28240932  0.96861993  0.96826199    -2.28770
O1038       O  0.26836631  0.07696529  0.98937887    -0.73370
H1039       H  0.33579434  0.06037090  0.94166239     0.78630
H1040       H  0.27737359  0.04393742  0.05373429     0.79720
H1041       H  0.20294982  0.04429541  0.94853829     0.81940
H1042       H  0.28857053  0.94727479  0.96393305     0.79550
H1043       H  0.29193808  0.11036810  0.04686095     0.42590
H1044       H  0.20710585  0.09516355  0.06010761     0.41560
H1045       H  0.16152866  0.02590160  0.01939733     0.41230
H1046       H  0.16974510  0.98188351  0.97665315     0.39170
H1047       H  0.22726989  0.93217538  0.90309842     0.42300
H1048       H  0.32754450  0.93522276  0.91517843     0.37080
H1049       H  0.39205751  0.00120288  0.94904806     0.43200
H1050       H  0.38406082  0.05050412  0.99558620     0.39610
H1051       H  0.16672579  0.00179013  0.94517069     0.44530
H1052       H  0.36241896  0.94876182  0.91440115     0.43260
H1053       H  0.38326409  0.08592972  0.00639081     0.43390
H1054       H  0.17929925  0.09455016  0.03563317     0.43750
O1055       O  0.69532546  0.01643937  0.07791755    -0.75120
O1056       O  0.72652742  0.97290502  0.08201613    -0.54030
C1057       C  0.70451309  0.99102312  0.09169939     0.78610
O1058       O  0.70871113  0.01382302  0.91119723    -0.59720
O1059       O  0.72221230  0.06599139  0.91011427    -0.52750
C1060       C  0.71093847  0.04075413  0.89724150     0.70620
O1061       O  0.70619934  0.93938817  0.98402505    -0.74280
O1062       O  0.73482702  0.92923170  0.02857221    -0.54840
C1063       C  0.71651054  0.92095361  0.00579101     0.76630
O1064       O  0.69418347  0.10206029  0.01567168    -0.59420
O1065       O  0.71666101  0.11404205  0.96778745    -0.52540
C1066       C  0.69886909  0.12046467  0.99183730     0.73220
Zr1067     Zr  0.70727800  0.04979191  0.03253696     2.54710
O1068       O  0.65000155  0.04465973  0.02749256    -0.79990
O1069       O  0.70231455  0.08410808  0.07810261    -0.93410
Zr1070     Zr  0.71269234  0.99204412  0.96345587     2.64680
O1071       O  0.65541585  0.99677909  0.96768140    -0.98360
O1072       O  0.70207466  0.95257398  0.92304974    -0.80420
O1073       O  0.71157952  0.99611950  0.01894715    -0.83780
O1074       O  0.70678842  0.04537623  0.97682350    -2.18490
O1075       O  0.78729034  0.11680999  0.02024075    -0.67170
O1076       O  0.78182046  0.12020340  0.96701653    -0.51730
C1077       C  0.78296610  0.13309725  0.99437226     0.71600
O1078       O  0.81128855  0.94148517  0.97639599    -0.60080
O1079       O  0.79760536  0.93574333  0.02816823    -0.52050
C1080       C  0.80481340  0.92391723  0.00115198     0.73400
O1081       O  0.79657154  0.01734706  0.90721992    -0.71470
O1082       O  0.78248292  0.06884744  0.90777262    -0.50150
C1083       C  0.78913584  0.04341157  0.89270025     0.74790
O1084       O  0.80137694  0.03835177  0.08967204    -0.66800
O1085       O  0.79081136  0.98557128  0.08688943    -0.54000
C1086       C  0.79590977  0.01089349  0.10294342     0.73170
Zr1087     Zr  0.80115315  0.06080665  0.03431667     2.77540
O1088       O  0.85855078  0.06342257  0.02772744    -0.97550
O1089       O  0.82460980  0.09851683  0.07097582    -0.78370
Zr1090     Zr  0.80782946  0.99953601  0.96277495     2.70070
O1091       O  0.86219569  0.01834031  0.96920710    -0.79620
O1092       O  0.84400255  0.97172577  0.92813525    -0.98700
Zr1093     Zr  0.76201242  0.97911350  0.03759332     2.21500
Zr1094     Zr  0.75383777  0.07135590  0.95777041     2.11130
O1095       O  0.80407602  0.05405989  0.97775964    -2.47390
O1096       O  0.80863533  0.00664577  0.01914115    -0.79410
O1097       O  0.75232500  0.07784154  0.01360400    -0.71610
O1098       O  0.76141951  0.97309076  0.98154240    -2.32560
O1099       O  0.75538527  0.03270210  0.05311110    -2.28770
O1100       O  0.75867925  0.01765138  0.94358638    -0.73370
H1101       H  0.68790960  0.05421581  0.96764352     0.78630
H1102       H  0.76022430  0.95170680  0.97410467     0.79720
H1103       H  0.82101281  0.06667966  0.96839367     0.81940
H1104       H  0.75087954  0.03506544  0.07532791     0.79550
H1105       H  0.72333938  0.94613929  0.91572023     0.42590
H1106       H  0.82993695  0.95755081  0.91588339     0.41560
H1107       H  0.87249022  0.00149379  0.98176253     0.41230
H1108       H  0.86540014  0.04113598  0.02797221     0.39170
H1109       H  0.80640174  0.11016603  0.07968782     0.42300
H1110       H  0.72251986  0.08214420  0.08969886     0.37080
H1111       H  0.64538063  0.02194486  0.03159700     0.43200
H1112       H  0.64922464  0.00791171  0.94794687     0.39610
H1113       H  0.86246477  0.07105810  0.00578564     0.44530
H1114       H  0.68598799  0.07413892  0.09202311     0.43260
H1115       H  0.64718815  0.97489729  0.96504883     0.43390
H1116       H  0.85171499  0.98777481  0.91255155     0.43750
O1117       O  0.04444762  0.85659302  0.55890776    -0.75120
O1118       O  0.99846520  0.83323840  0.57628755    -0.54030
C1119       C  0.02252015  0.85204895  0.57967139     0.78610
O1120       O  0.99808992  0.82463814  0.39869035    -0.59720
O1121       O  0.04645596  0.80385562  0.38866948    -0.52750
C1122       C  0.02003785  0.81608542  0.37980247     0.70620
O1123       O  0.96382370  0.85907738  0.49727474    -0.74280
O1124       O  0.93888057  0.82693999  0.53106940    -0.54840
C1125       C  0.93828556  0.84946257  0.51072450     0.76630
O1126       O  0.10753937  0.84395496  0.47482803    -0.59420
O1127       O  0.10597305  0.81552471  0.42909924    -0.52540
C1128       C  0.11882192  0.83562815  0.44789227     0.73220
Zr1129     Zr  0.06112016  0.83788196  0.50808573     2.54710
O1130       O  0.05644448  0.89431683  0.49725798    -0.79990
O1131       O  0.10885385  0.84708000  0.53911822    -0.93410
Zr1132     Zr  0.98909974  0.83240837  0.45375607     2.64680
O1133       O  0.99860206  0.88666000  0.43556165    -0.98360
O1134       O  0.93726221  0.83770010  0.42910562    -0.80420
O1135       O  0.00549457  0.83870044  0.50658855    -0.83780
O1136       O  0.04479658  0.83226570  0.45501464    -2.18490
O1137       O  0.11295881  0.75254593  0.50393373    -0.67170
O1138       O  0.11376025  0.75868702  0.45031989    -0.51730
C1139       C  0.12806169  0.75647230  0.47726621     0.71600
O1140       O  0.93138704  0.74170273  0.48878126    -0.60080
O1141       O  0.93257264  0.76726711  0.53631851    -0.52050
C1142       C  0.91763874  0.75386065  0.51319470     0.73400
O1143       O  0.99504606  0.73913024  0.40741164    -0.71470
O1144       O  0.04802013  0.74046995  0.40180075    -0.50150
C1145       C  0.02024306  0.73891214  0.38972076     0.74790
O1146       O  0.04499435  0.75220056  0.58224700    -0.66800
O1147       O  0.99491599  0.77087491  0.58793762    -0.54000
C1148       C  0.02175469  0.76259403  0.59945657     0.73170
Zr1149     Zr  0.05795847  0.74440952  0.52453811     2.77540
O1150       O  0.04960442  0.68755026  0.51938508    -0.97550
O1151       O  0.09618985  0.71804205  0.55846649    -0.78370
Zr1152     Zr  0.98523933  0.73792245  0.46590637     2.70070
O1153       O  0.99636018  0.68279130  0.47800968    -0.79620
O1154       O  0.94510634  0.70577728  0.43936382    -0.98700
Zr1155     Zr  0.98480863  0.79417942  0.53632350     2.21500
Zr1156     Zr  0.06135367  0.78063209  0.43993661     2.11130
O1157       O  0.04183245  0.73594089  0.47061846    -2.47390
O1158       O  0.00132974  0.74271607  0.52031607    -0.79410
O1159       O  0.07703617  0.78737655  0.49325410    -0.71610
O1160       O  0.96829417  0.78895002  0.48236502    -2.32560
O1161       O  0.04139214  0.79527688  0.53949652    -2.28770
O1162       O  0.00543149  0.78196267  0.43716662    -0.73370
H1163       H  0.05360928  0.84858820  0.44126387     0.78630
H1164       H  0.94609150  0.79268883  0.47946714     0.79720
H1165       H  0.05009797  0.71644121  0.46242034     0.81940
H1166       H  0.04942202  0.80040598  0.56012807     0.79550
H1167       H  0.92203785  0.82649609  0.44331094     0.42590
H1168       H  0.93473687  0.72047706  0.42436689     0.41560
H1169       H  0.98176006  0.67724970  0.49573174     0.41230
H1170       H  0.07063136  0.67922551  0.51356467     0.39170
H1171       H  0.10537862  0.73500642  0.57174300     0.42300
H1172       H  0.10441063  0.83696452  0.55994999     0.37080
H1173       H  0.06185248  0.89688199  0.47449689     0.43200
H1174       H  0.01435604  0.88507102  0.41819356     0.39610
H1175       H  0.04572330  0.67975252  0.54130150     0.44530
H1176       H  0.10905094  0.87007390  0.54340809     0.43260
H1177       H  0.97875916  0.89259832  0.42474664     0.43390
H1178       H  0.95705454  0.69118042  0.42569395     0.43750
O1179       O  0.83325469  0.02050006  0.41549350    -0.75120
O1180       O  0.80776667  0.97256285  0.41325968    -0.54030
C1181       C  0.82611231  0.99407086  0.40172202     0.78610
O1182       O  0.82783982  0.01933818  0.58362293    -0.59720
O1183       O  0.80234808  0.06641645  0.58433660    -0.52750
C1184       C  0.82054510  0.04571286  0.59655964     0.70620
O1185       O  0.83822108  0.94178800  0.51187914    -0.74280
O1186       O  0.81284185  0.93088643  0.46538407    -0.54840
C1187       C  0.83311811  0.92507437  0.48723430     0.76630
O1188       O  0.83711422  0.09761507  0.49293420    -0.59420
O1189       O  0.80560535  0.10730433  0.53596480    -0.52540
C1190       C  0.82940654  0.11317735  0.51788332     0.73220
Zr1191     Zr  0.82116566  0.05041952  0.46406323     2.54710
O1192       O  0.87871836  0.04806047  0.46182866    -0.79990
O1193       O  0.82245807  0.09269788  0.42442521    -0.93410
Zr1194     Zr  0.82070087  0.99005150  0.53496836     2.64680
O1195       O  0.87807036  0.99751336  0.53465618    -0.98360
O1196       O  0.82420931  0.95116085  0.57769615    -0.80420
O1197       O  0.82245567  0.99659967  0.47918812    -0.83780
O1198       O  0.81971096  0.04317344  0.51975082    -2.18490
O1199       O  0.73481555  0.10555425  0.47338401    -0.67170
O1200       O  0.74041360  0.10993938  0.52630967    -0.51730
C1201       C  0.73811366  0.12260855  0.49866336     0.71600
O1202       O  0.72913300  0.92696615  0.51837483    -0.60080
O1203       O  0.74360929  0.92551372  0.46656119    -0.52050
C1204       C  0.73689590  0.91173334  0.49298692     0.73400
O1205       O  0.73733058  0.00220221  0.58935798    -0.71470
O1206       O  0.73993326  0.05541083  0.58652020    -0.50150
C1207       C  0.74014241  0.02959473  0.60283979     0.74790
O1208       O  0.72772412  0.02607458  0.40707532    -0.66800
O1209       O  0.74825980  0.97648654  0.40810618    -0.54000
C1210       C  0.73752291  0.00075392  0.39315094     0.73170
Zr1211     Zr  0.72610923  0.04779927  0.46195656     2.77540
O1212       O  0.66895827  0.04252862  0.46961240    -0.97550
O1213       O  0.69633567  0.08033419  0.42502870    -0.78370
Zr1214     Zr  0.72639194  0.98386151  0.53393240     2.70070
O1215       O  0.66987909  0.99378888  0.53011433    -0.79620
O1216       O  0.69686069  0.94857445  0.56973159    -0.98700
Zr1217     Zr  0.77489273  0.97307428  0.45917607     2.21500
Zr1218     Zr  0.77003761  0.06288615  0.53783215     2.11130
O1219       O  0.72258556  0.03870697  0.51824969    -2.47390
O1220       O  0.72532516  0.99271607  0.47747207    -0.79410
O1221       O  0.77272813  0.07183991  0.48215231    -0.71610
O1222       O  0.77551360  0.96412201  0.51505239    -2.32560
O1223       O  0.77494520  0.02747009  0.44356731    -2.28770
O1224       O  0.77229978  0.00910669  0.55366115    -0.73370
H1225       H  0.83756835  0.05322354  0.52996433     0.78630
H1226       H  0.77977957  0.94256993  0.52107117     0.79720
H1227       H  0.70432669  0.04854272  0.52761157     0.81940
H1228       H  0.77843788  0.03148388  0.42136022     0.79550
H1229       H  0.80323679  0.95172077  0.58830170     0.42590
H1230       H  0.71332729  0.93658851  0.58113502     0.41560
H1231       H  0.66141115  0.97590927  0.51754999     0.41230
H1232       H  0.66491128  0.01960886  0.47288550     0.39170
H1233       H  0.71215330  0.08788998  0.40918124     0.42300
H1234       H  0.80085070  0.10148900  0.42496415     0.37080
H1235       H  0.88361189  0.02610951  0.46834710     0.43200
H1236       H  0.88248359  0.01230381  0.55220871     0.39610
H1237       H  0.66420376  0.05232761  0.49027742     0.44530
H1238       H  0.82381818  0.08183722  0.40378296     0.43260
H1239       H  0.88639887  0.97701779  0.54220343     0.43390
H1240       H  0.68759823  0.96249085  0.58598315     0.43750
O1241       O  0.19942144  0.94591382  0.47675364    -0.75120
O1242       O  0.22697935  0.94327747  0.43011160    -0.54030
C1243       C  0.20693287  0.93249982  0.45048874     0.78610
O1244       O  0.22239806  0.11463221  0.46424892    -0.59720
O1245       O  0.22097591  0.11220794  0.51717878    -0.52750
C1246       C  0.21166410  0.12409332  0.49075784     0.70620
O1247       O  0.20412350  0.03957496  0.39316027    -0.74280
O1248       O  0.23059088  0.99346306  0.38602205    -0.54840
C1249       C  0.21163554  0.01520563  0.37716015     0.76630
O1250       O  0.20427898  0.01234106  0.56019793    -0.59420
O1251       O  0.22601658  0.06162910  0.56647894    -0.52540
C1252       C  0.20965941  0.03750397  0.57619965     0.73220
Zr1253     Zr  0.21147029  0.99400221  0.50667137     2.54710
O1254       O  0.15461705  0.00199891  0.50279007    -0.79990
O1255       O  0.20065075  0.95134075  0.54463561    -0.93410
Zr1256     Zr  0.21366295  0.06212217  0.44432622     2.64680
O1257       O  0.15719873  0.05931623  0.45717330    -0.98360
O1258       O  0.19795784  0.10031645  0.40381049    -0.80420
O1259       O  0.21314358  0.00676734  0.45214428    -0.83780
O1260       O  0.21112257  0.04942899  0.49896754    -2.18490
O1261       O  0.29630879  0.00849489  0.56730881    -0.67170
O1262       O  0.28817739  0.06127519  0.56954752    -0.51730
C1263       C  0.29156788  0.03419502  0.58322974     0.71600
O1264       O  0.30871525  0.04689928  0.38700401    -0.60080
O1265       O  0.29902048  0.99443653  0.38907006    -0.52050
C1266       C  0.30213381  0.02027024  0.37320385     0.73400
O1267       O  0.29640260  0.11923756  0.45975752    -0.71470
O1268       O  0.28625919  0.12082420  0.51251540    -0.50150
C1269       C  0.28991858  0.13471881  0.48538865     0.74790
O1270       O  0.30677694  0.93861281  0.49022013    -0.66800
O1271       O  0.28932589  0.93805888  0.43938042    -0.54000
C1272       C  0.29874814  0.92375880  0.46454610     0.73170
Zr1273     Zr  0.30635853  0.99427526  0.51043641     2.77540
O1274       O  0.36361918  0.00281003  0.50873965    -0.97550
O1275       O  0.33191463  0.95720070  0.54621052    -0.78370
Zr1276     Zr  0.30876098  0.06373517  0.44423403     2.70070
O1277       O  0.36453538  0.05942347  0.45775252    -0.79620
O1278       O  0.34024896  0.10161336  0.41299717    -0.98700
Zr1279     Zr  0.26244328  0.98780805  0.43277626     2.21500
Zr1280     Zr  0.25955981  0.07003673  0.52070366     2.11130
O1281       O  0.30866147  0.05051350  0.50004266    -2.47390
O1282       O  0.31049265  0.00787580  0.45504231    -0.79410
O1283       O  0.25829439  0.01448222  0.52996500    -0.71610
O1284       O  0.26095765  0.04320420  0.42230821    -2.32560
O1285       O  0.25904030  0.97357935  0.48754821    -2.28770
O1286       O  0.26097244  0.08234981  0.46586813    -0.73370
H1287       H  0.19282003  0.05836299  0.50915873     0.78630
H1288       H  0.25840646  0.04929939  0.40047564     0.79720
H1289       H  0.32621393  0.06063667  0.51074159     0.81940
H1290       H  0.25534149  0.95139705  0.49166540     0.79550
H1291       H  0.17604565  0.09433644  0.39776936     0.42590
H1292       H  0.32516609  0.11050518  0.39752006     0.41560
H1293       H  0.37329533  0.04522788  0.44146260     0.41230
H1294       H  0.36931231  0.00239839  0.48595516     0.39170
H1295       H  0.31456456  0.94288533  0.55365018     0.42300
H1296       H  0.21937472  0.93760095  0.54327056     0.37080
H1297       H  0.14860580  0.99222940  0.48238990     0.43200
H1298       H  0.15345819  0.07645891  0.47249937     0.39610
H1299       H  0.36746760  0.02493281  0.51532156     0.44530
H1300       H  0.18302730  0.93869477  0.53554824     0.43260
H1301       H  0.14619916  0.06611527  0.43764937     0.43390
H1302       H  0.35472818  0.08871590  0.40006470     0.43750
O1303       O  0.91989006  0.29544765  0.46150860    -0.75120
O1304       O  0.91632343  0.29590396  0.51509579    -0.54030
C1305       C  0.90344099  0.29472098  0.48757738     0.78610
O1306       O  0.00345164  0.19232645  0.41656269    -0.59720
O1307       O  0.05069111  0.21723287  0.40596031    -0.52750
C1308       C  0.02839806  0.19752711  0.39936378     0.70620
O1309       O  0.93304970  0.19919278  0.49867103    -0.74280
O1310       O  0.92493048  0.23365002  0.53921175    -0.54840
C1311       C  0.91893414  0.20812981  0.52407587     0.76630
O1312       O  0.99684470  0.29654134  0.39119033    -0.59420
O1313       O  0.04637583  0.27548343  0.39177538    -0.52540
C1314       C  0.02168778  0.28554387  0.37713612     0.73220
Zr1315     Zr  0.97664950  0.30391202  0.44608697     2.54710
O1316       O  0.94181430  0.32398602  0.40487956    -0.79990
O1317       O  0.98019132  0.36138272  0.44882501    -0.93410
Zr1318     Zr  0.97813908  0.21100975  0.46500516     2.64680
O1319       O  0.93448999  0.20034419  0.42893937    -0.98360
O1320       O  0.98342164  0.15443860  0.47454447    -0.80420
O1321       O  0.95542643  0.26066549  0.47566948    -0.83780
O1322       O  0.99810929  0.25371448  0.43497431    -2.18490
O1323       O  0.09971556  0.31413413  0.49194205    -0.67170
O1324       O  0.09981315  0.29025886  0.44405162    -0.51730
C1325       C  0.11437738  0.30223382  0.46773488     0.71600
O1326       O  0.01592846  0.22543874  0.58133972    -0.60080
O1327       O  0.96801731  0.24948704  0.58164304    -0.52050
C1328       C  0.99025074  0.23409900  0.59501586     0.73400
O1329       O  0.09117240  0.20617341  0.51037446    -0.71470
O1330       O  0.09746802  0.22216431  0.45875358    -0.50150
C1331       C  0.10630107  0.20737657  0.48405942     0.74790
O1332       O  0.02839887  0.31573377  0.56927096    -0.66800
O1333       O  0.97517048  0.31213626  0.56981193    -0.54000
C1334       C  0.00161415  0.31463592  0.58458624     0.73170
Zr1335     Zr  0.04366677  0.31753928  0.51161671     2.77540
O1336       O  0.07740517  0.35366974  0.54155463    -0.97550
O1337       O  0.03111707  0.37142703  0.49575534    -0.78370
Zr1338     Zr  0.04183221  0.22498390  0.53015224     2.70070
O1339       O  0.08342534  0.22934073  0.56962952    -0.79620
O1340       O  0.03499861  0.16848573  0.54034832    -0.98700
Zr1341     Zr  0.96628602  0.27249291  0.52953569     2.21500
Zr1342     Zr  0.05330846  0.25688019  0.44619480     2.11130
O1343       O  0.06461438  0.26680544  0.50055634    -2.47390
O1344       O  0.02122493  0.27490071  0.54098503    -0.79410
O1345       O  0.03247182  0.30812714  0.45670855    -0.71610
O1346       O  0.98791574  0.22166509  0.51896777    -2.32560
O1347       O  0.98771246  0.31672227  0.50018094    -2.28770
O1348       O  0.03283353  0.21294546  0.47613538    -0.73370
H1349       H  0.99312542  0.24751708  0.41367425     0.78630
H1350       H  0.97940737  0.20523639  0.53275234     0.79720
H1351       H  0.08661865  0.26460486  0.50595125     0.81940
H1352       H  0.97762925  0.33604486  0.50653121     0.79550
H1353       H  0.98234927  0.15198810  0.49789923     0.42590
H1354       H  0.04353143  0.15826369  0.52114504     0.41560
H1355       H  0.08958743  0.25204544  0.56926246     0.41230
H1356       H  0.09377270  0.34003767  0.55106840     0.39170
H1357       H  0.04467067  0.37567522  0.47690785     0.42300
H1358       H  0.95796431  0.36829427  0.45084056     0.37080
H1359       H  0.93144785  0.30487751  0.39597738     0.43200
H1360       H  0.94068344  0.21128484  0.40893061     0.39610
H1361       H  0.08898397  0.36656339  0.52541053     0.44530
H1362       H  0.98681552  0.36828294  0.42725324     0.43260
H1363       H  0.93610534  0.17754274  0.42411004     0.43390
H1364       H  0.05058246  0.16371299  0.55713917     0.43750
O1365       O  0.02734581  0.91939180  0.21156339    -0.75120
O1366       O  0.97400721  0.91750952  0.21552897    -0.54030
C1367       C  0.00081459  0.90364166  0.21414199     0.78610
O1368       O  0.07795260  0.00388504  0.32341720    -0.59720
O1369       O  0.09651897  0.03974290  0.28751606    -0.52750
C1370       C  0.10018578  0.02081955  0.31119411     0.70620
O1371       O  0.01828840  0.91936947  0.30017372    -0.74280
O1372       O  0.97006227  0.91265615  0.27722470    -0.54840
C1373       C  0.99454541  0.90233093  0.29203235     0.76630
O1374       O  0.09974573  0.99604165  0.20618183    -0.59420
O1375       O  0.10058716  0.04595154  0.22571136    -0.52540
C1376       C  0.11477125  0.02144019  0.21532118     0.73220
Zr1377     Zr  0.04343643  0.97604682  0.20425891     2.54710
O1378       O  0.07966316  0.94104521  0.17697743    -0.79990
O1379       O  0.03300594  0.98337527  0.14795788    -0.93410
Zr1380     Zr  0.03762057  0.97233488  0.29892620     2.64680
O1381       O  0.08224403  0.93641941  0.29624881    -0.98360
O1382       O  0.02801266  0.96232896  0.35518594    -0.80420
O1383       O  0.01919161  0.95390054  0.25006066    -0.83780
O1384       O  0.06230109  0.99458925  0.25380008    -2.18490
O1385       O  0.99662675  0.09806340  0.20675249    -0.67170
O1386       O  0.04720782  0.09845374  0.22478876    -0.51730
C1387       C  0.02219240  0.11283481  0.21583701     0.71600
O1388       O  0.92180975  0.01417049  0.30374065    -0.60080
O1389       O  0.91692267  0.96524877  0.28194291    -0.52050
C1390       C  0.90628983  0.98860531  0.29807793     0.73400
O1391       O  0.99878803  0.08657366  0.31338664    -0.71470
O1392       O  0.04729026  0.09341211  0.29001482    -0.50150
C1393       C  0.02442662  0.10253524  0.30770892     0.74790
O1394       O  0.92019882  0.02624908  0.21386049    -0.66800
O1395       O  0.91821969  0.97295196  0.21645300    -0.54000
C1396       C  0.90439162  0.99977876  0.21633414     0.73170
Zr1397     Zr  0.97678434  0.04191426  0.20453299     2.77540
O1398       O  0.94189751  0.07652957  0.17466632    -0.97550
O1399       O  0.98356982  0.03082914  0.14836479    -0.78370
Zr1400     Zr  0.97424530  0.03628158  0.29950877     2.70070
O1401       O  0.93495718  0.07596693  0.31098014    -0.79620
O1402       O  0.97744780  0.02465453  0.35603360    -0.98700
Zr1403     Zr  0.96420334  0.96284340  0.24858669     2.21500
Zr1404     Zr  0.05112049  0.04949918  0.25427167     2.11130
O1405       O  0.99595812  0.06054745  0.25390938    -2.47390
O1406       O  0.95461859  0.01800480  0.25067181    -0.79410
O1407       O  0.03250716  0.03148812  0.20406375    -0.71610
O1408       O  0.98277646  0.98121883  0.29868423    -2.32560
O1409       O  0.98756764  0.98637637  0.20150042    -2.28770
O1410       O  0.02880748  0.02709747  0.30146018    -0.73370
H1411       H  0.08421976  0.98978950  0.25744191     0.78630
H1412       H  0.97229907  0.97038961  0.31618750     0.79720
H1413       H  0.99095984  0.08237682  0.25734096     0.81940
H1414       H  0.97827729  0.97715444  0.18277137     0.79550
H1415       H  0.03191118  0.93947419  0.35832850     0.42590
H1416       H  0.99658803  0.03636617  0.36315100     0.41560
H1417       H  0.92878169  0.08379378  0.28971987     0.41230
H1418       H  0.93580649  0.09311498  0.18985833     0.39170
H1419       H  0.00091821  0.04535551  0.14136593     0.42300
H1420       H  0.02846976  0.96180429  0.14003260     0.37080
H1421       H  0.09156871  0.93051151  0.19417823     0.43200
H1422       H  0.10162260  0.94983819  0.29710345     0.39610
H1423       H  0.95575898  0.08767921  0.15903300     0.44530
H1424       H  0.05384215  0.98928543  0.13856230     0.43260
H1425       H  0.08177501  0.92433025  0.31645756     0.43390
H1426       H  0.95953189  0.03620503  0.36547400     0.43750
O1427       O  0.00498576  0.96298319  0.66650067    -0.75120
O1428       O  0.05535965  0.95914797  0.68519195    -0.54030
C1429       C  0.03133333  0.94865477  0.66974591     0.78610
O1430       O  0.01042471  0.12867547  0.67483563    -0.59720
O1431       O  0.96537133  0.13075531  0.70460365    -0.52750
C1432       C  0.98563046  0.14270961  0.68500571     0.70620
O1433       O  0.09126892  0.06285118  0.65910250    -0.74280
O1434       O  0.10377130  0.01623322  0.68323230    -0.54840
C1435       C  0.11015851  0.03994842  0.66466740     0.76630
O1436       O  0.92632395  0.02894821  0.68234480    -0.59420
O1437       O  0.92092861  0.07626526  0.70699588    -0.52540
C1438       C  0.91022037  0.05293741  0.69060744     0.73220
Zr1439     Zr  0.98000960  0.01143263  0.68205575     2.54710
O1440       O  0.98005926  0.02473301  0.62575366    -0.79990
O1441       O  0.94106454  0.97012043  0.67018815    -0.93410
Zr1442     Zr  0.04027004  0.08056520  0.67755559     2.64680
O1443       O  0.03166098  0.08092614  0.62051374    -0.98360
O1444       O  0.07346707  0.12784483  0.67381587    -0.80420
O1445       O  0.03391992  0.02504604  0.67483991    -0.83780
O1446       O  0.98623143  0.06672773  0.68314821    -2.18490
O1447       O  0.93253340  0.01716848  0.77362963    -0.67170
O1448       O  0.92897558  0.07019844  0.77260334    -0.51730
C1449       C  0.91584882  0.04266227  0.77352761     0.71600
O1450       O  0.11044314  0.05924810  0.76484296    -0.60080
O1451       O  0.10927894  0.00824095  0.74868885    -0.52050
C1452       C  0.12453137  0.03361754  0.75586416     0.73400
O1453       O  0.03563857  0.13249022  0.76209885    -0.71470
O1454       O  0.98213591  0.13130970  0.76352965    -0.50150
C1455       C  0.00858370  0.14676302  0.76153370     0.74790
O1456       O  0.01198409  0.95086695  0.77228492    -0.66800
O1457       O  0.05925715  0.95214005  0.74574687    -0.54000
C1458       C  0.03625392  0.93714279  0.75967382     0.73170
Zr1459     Zr  0.99030294  0.00543261  0.77669362     2.77540
O1460       O  0.00016939  0.01147578  0.83326431    -0.97550
O1461       O  0.95932707  0.96764518  0.80841654    -0.78370
Zr1462     Zr  0.05379356  0.07679508  0.77130493     2.70070
O1463       O  0.04723062  0.07165357  0.82851349    -0.79620
O1464       O  0.09079834  0.11318445  0.79680127    -0.98700
Zr1465     Zr  0.06047426  0.00381484  0.71997594     2.21500
Zr1466     Zr  0.97070987  0.08276114  0.73514193     2.11130
O1467       O  0.99906457  0.06167421  0.77974913    -2.47390
O1468       O  0.04519518  0.02050810  0.77186718    -0.79410
O1469       O  0.96289646  0.02712334  0.73291497    -0.71610
O1470       O  0.06927531  0.05965162  0.72033244    -2.32560
O1471       O  0.00606351  0.98874839  0.72550668    -2.28770
O1472       O  0.02478528  0.09691123  0.72813833    -0.73370
H1473       H  0.97360623  0.07661669  0.66688867     0.78630
H1474       H  0.09073113  0.06637511  0.71594179     0.79720
H1475       H  0.99084188  0.07036970  0.79916085     0.81940
H1476       H  0.00146724  0.96665437  0.72248424     0.79550
H1477       H  0.08526845  0.12803444  0.69404915     0.42590
H1478       H  0.09921332  0.12666310  0.77928011     0.41560
H1479       H  0.06624707  0.06015657  0.83558129     0.41230
H1480       H  0.02345785  0.01370120  0.83512284     0.39170
H1481       H  0.95015794  0.95273504  0.79287734     0.42300
H1482       H  0.94637787  0.95204638  0.68417980     0.37080
H1483       H  0.99707058  0.01172433  0.61658879     0.43200
H1484       H  0.01101377  0.09138456  0.61771680     0.39610
H1485       H  0.99175363  0.03234597  0.83913998     0.44530
H1486       H  0.94613427  0.96301699  0.64845970     0.43260
H1487       H  0.04744674  0.09648185  0.61213256     0.43390
H1488       H  0.07746318  0.12748513  0.80946019     0.43750
C1489       C  0.01373097  0.24797818  0.24426631     0.00740
C1490       C  0.01627331  0.27031391  0.22056602     0.00740
C1491       C  0.75025541  0.00013817  0.23454372     0.00740
C1492       C  0.77190886  0.99697555  0.25849834     0.00740
C1493       C  0.00370318  0.74841148  0.23172570     0.00740
C1494       C  0.00668298  0.77094657  0.25481291     0.00740
C1495       C  0.27254490  0.01507711  0.21963940     0.00740
C1496       C  0.25057355  0.01508685  0.24372471     0.00740
C1497       C  0.27022208  0.28956018  0.48038214     0.00740
C1498       C  0.24708179  0.26648425  0.48196800     0.00740
C1499       C  0.74496727  0.28146410  0.49528569     0.00740
C1500       C  0.76857237  0.25928521  0.49487906     0.00740
C1501       C  0.26391709  0.78923887  0.47661276     0.00740
C1502       C  0.28576335  0.76564931  0.47956099     0.00740
C1503       C  0.28221759  0.02699896  0.74334810     0.00740
C1504       C  0.25960750  0.02991954  0.71987593     0.00740
C1505       C  0.24730042  0.28062410  0.97165597     0.00740
C1506       C  0.26917324  0.25762680  0.97864041     0.00740
C1507       C  0.26402395  0.75907666  0.98758378     0.00740
C1508       C  0.28823100  0.78070211  0.98267681     0.00740
C1509       C  0.52461931  0.75349766  0.24119256     0.00740
C1510       C  0.52046797  0.77663754  0.21855034     0.00740
C1511       C  0.50998912  0.27644770  0.25173260     0.00740
C1512       C  0.51451046  0.25342308  0.22918089     0.00740
C1513       C  0.51312138  0.29787641  0.72631726     0.00740
C1514       C  0.50860234  0.27591850  0.75005900     0.00740
C1515       C  0.99477728  0.27929171  0.71981027     0.00740
C1516       C  0.99180458  0.30187469  0.74287752     0.00740
C1517       C  0.76719822  0.28968077  0.98842512     0.00740
C1518       C  0.74448745  0.26600199  0.99078816     0.00740
C1519       C  0.27086887  0.52507848  0.24365360     0.00740
C1520       C  0.24745560  0.52120634  0.22163803     0.00740
C1521       C  0.74867750  0.50315065  0.25023853     0.00740
C1522       C  0.77136993  0.50634182  0.22686903     0.00740
C1523       C  0.27683148  0.50812471  0.72228776     0.00740
C1524       C  0.25289451  0.51087657  0.74468537     0.00740
C1525       C  0.04280131  0.77935718  0.75499683     0.00740
C1526       C  0.03831170  0.80182542  0.73169626     0.00740
C1527       C  0.75858953  0.04355645  0.75661216     0.00740
C1528       C  0.78279396  0.04252113  0.73481993     0.00740
C1529       C  0.79091176  0.76691105  0.98516500     0.00740
C1530       C  0.76807801  0.78965645  0.98692843     0.00740
C1531       C  0.75424111  0.54688287  0.72793695     0.00740
C1532       C  0.77672202  0.55183890  0.75079007     0.00740
C1533       C  0.78297887  0.78229933  0.49834309     0.00740
C1534       C  0.76091723  0.75863711  0.49345306     0.00740
C1535       C  0.53441338  0.77351642  0.71984105     0.00740
C1536       C  0.53777016  0.79707837  0.74190281     0.00740
C1537       C  0.81682291  0.04279122  0.74567493     0.00020
C1538       C  0.83285811  0.01401521  0.74861233    -0.11860
C1539       C  0.86377398  0.01267948  0.76116611     0.02250
C1540       C  0.88039825  0.04091560  0.76908358    -0.00070
C1541       C  0.86344950  0.06938481  0.76786497    -0.11800
C1542       C  0.83198559  0.07038186  0.75724140     0.02140
H1543       H  0.82078835  0.99229211  0.74182617     0.15120
H1544       H  0.87493316  0.09132924  0.77489112     0.15120
C1545       C  0.81584885  0.10010345  0.75929091     0.36770
C1546       C  0.87748168  0.98193238  0.76581840     0.36680
N1547       N  0.80346358  0.12421325  0.76163419    -0.43570
N1548       N  0.88817184  0.95712866  0.76954291    -0.43570
C1549       C  0.00690387  0.18182662  0.75387929     0.00020
C1550       C  0.97708614  0.19642563  0.75503068    -0.11860
C1551       C  0.97239353  0.22723870  0.74324107     0.02250
C1552       C  0.99764946  0.24466724  0.72894781    -0.00070
C1553       C  0.02766762  0.23060880  0.72833196    -0.11800
C1554       C  0.03264924  0.19999862  0.74106744     0.02140
H1555       H  0.95690860  0.18356516  0.76501029     0.15120
H1556       H  0.04761130  0.24402901  0.71859953     0.15120
C1557       C  0.06434713  0.18781225  0.73944122     0.36770
C1558       C  0.94142691  0.24058999  0.74729554     0.36680
N1559       N  0.08992523  0.17843579  0.73795774    -0.43570
N1560       N  0.91648425  0.25080314  0.75146620    -0.43570
C1561       C  0.22482912  0.03132819  0.72881013     0.00020
C1562       C  0.21290202  0.05766034  0.74504133    -0.11860
C1563       C  0.18107204  0.05879506  0.75545042     0.02250
C1564       C  0.15994394  0.03310303  0.74966549    -0.00070
C1565       C  0.17231209  0.00677731  0.73337786    -0.11800
C1566       C  0.20392434  0.00585972  0.72288775     0.02140
H1567       H  0.22861094  0.07761636  0.74953882     0.15120
H1568       H  0.15706449  0.98670852  0.72793384     0.15120
C1569       C  0.21447041  0.97808925  0.70648661     0.36770
C1570       C  0.17118003  0.08667353  0.77200522     0.36680
N1571       N  0.22291069  0.95571310  0.69351072    -0.43570
N1572       N  0.16377207  0.10921515  0.78533281    -0.43570
C1573       C  0.03587281  0.90178502  0.75663176     0.00020
C1574       C  0.06451340  0.88516698  0.75792375    -0.11860
C1575       C  0.06591858  0.85294108  0.74976597     0.02250
C1576       C  0.03843450  0.83658107  0.73939423    -0.00070
C1577       C  0.00995398  0.85317812  0.73767944    -0.11800
C1578       C  0.00833841  0.88516753  0.74638178     0.02140
H1579       H  0.08605971  0.89758573  0.76475381     0.15120
H1580       H  0.98869866  0.84097351  0.72973005     0.15120
C1581       C  0.97834319  0.90069251  0.74259597     0.36770
C1582       C  0.09611181  0.83747045  0.75120517     0.36680
N1583       N  0.95420616  0.91292025  0.73939406    -0.43570
N1584       N  0.12042623  0.82524486  0.75241068    -0.43570
C1585       C  0.15049077  0.02113846  0.21837794     0.00020
C1586       C  0.16688970  0.99269156  0.21393537    -0.11860
C1587       C  0.19912359  0.98987812  0.22211855     0.02250
C1588       C  0.21564116  0.01542570  0.23642789    -0.00070
C1589       C  0.19950907  0.04368034  0.24080721    -0.11800
C1590       C  0.16805752  0.04722256  0.23083892     0.02140
H1591       H  0.15441897  0.97225129  0.20452821     0.15120
H1592       H  0.21218283  0.06377810  0.25072381     0.15120
C1593       C  0.15539756  0.07860731  0.23262460     0.36770
C1594       C  0.21438005  0.96024879  0.21597564     0.36680
N1595       N  0.14606178  0.10414051  0.23370735    -0.43570
N1596       N  0.22628347  0.93634911  0.21078688    -0.43570
C1597       C  0.00618635  0.80542580  0.24559512     0.00020
C1598       C  0.97671339  0.81985729  0.24221354    -0.11860
C1599       C  0.97400565  0.85047590  0.22936576     0.02250
C1600       C  0.00158571  0.86843355  0.22060335    -0.00070
C1601       C  0.03112321  0.85346558  0.22339533    -0.11800
C1602       C  0.03357604  0.82241770  0.23553721     0.02140
H1603       H  0.95543200  0.80668618  0.24889865     0.15120
H1604       H  0.05267376  0.86639889  0.21714298     0.15120
C1605       C  0.06465937  0.80903583  0.23836504     0.36770
C1606       C  0.94236743  0.86263144  0.22627725     0.36680
N1607       N  0.08980612  0.79874285  0.24064952    -0.43570
N1608       N  0.91691597  0.87218671  0.22399192    -0.43570
C1609       C  0.86955347  0.99981269  0.22438139     0.00020
C1610       C  0.85487356  0.97098638  0.23384150    -0.11860
C1611       C  0.82408618  0.96970357  0.24657827     0.02250
C1612       C  0.80672941  0.99765922  0.25037515    -0.00070
C1613       C  0.82122306  0.02651364  0.24121384    -0.11800
C1614       C  0.85173824  0.02779110  0.22753253     0.02140
H1615       H  0.86774005  0.94906481  0.23204322     0.15120
H1616       H  0.80811025  0.04819785  0.24381299     0.15120
C1617       C  0.86365282  0.05824163  0.21678652     0.36770
C1618       C  0.81128747  0.93910063  0.25553647     0.36680
N1619       N  0.87277210  0.08286115  0.20827347    -0.43570
N1620       N  0.80226671  0.91396461  0.26240825    -0.43570
C1621       C  0.01435462  0.21325954  0.23688992     0.00020
C1622       C  0.04088230  0.19643084  0.24649066    -0.11860
C1623       C  0.04492033  0.16473148  0.23833065     0.02250
C1624       C  0.02150318  0.14821853  0.22030801    -0.00070
C1625       C  0.99446506  0.16519260  0.21114570    -0.11800
C1626       C  0.99066637  0.19719348  0.21934193     0.02140
H1627       H  0.05910007  0.20846158  0.26012926     0.15120
H1628       H  0.97565719  0.15323077  0.19831341     0.15120
C1629       C  0.96149107  0.21235133  0.21083181     0.36770
C1630       C  0.07314285  0.15020324  0.25037112     0.36680
N1631       N  0.93787646  0.22412832  0.20399231    -0.43570
N1632       N  0.09580507  0.13931902  0.26088218    -0.43570
C1633       C  0.00072553  0.31053258  0.62036607     0.00020
C1634       C  0.97143429  0.30240009  0.63481637    -0.11860
C1635       C  0.96926837  0.29151752  0.66635133     0.02250
C1636       C  0.99665708  0.28913911  0.68523726    -0.00070
C1637       C  0.02576011  0.29923230  0.67181587    -0.11800
C1638       C  0.02809127  0.30960948  0.63983570     0.02140
H1639       H  0.94986305  0.30304694  0.62098705     0.15120
H1640       H  0.04690123  0.29859859  0.68629618     0.15120
C1641       C  0.05901537  0.31857763  0.62776409     0.36770
C1642       C  0.93828820  0.28276845  0.67832465     0.36680
N1643       N  0.08393921  0.32562941  0.61826885    -0.43570
N1644       N  0.91290385  0.27619288  0.68680633    -0.43570
C1645       C  0.86816825  0.28893546  0.48661376     0.00020
C1646       C  0.84960465  0.29835995  0.51257351    -0.11860
C1647       C  0.81774224  0.28862491  0.51605666     0.02250
C1648       C  0.80316345  0.26911013  0.49303726    -0.00070
C1649       C  0.82138991  0.26023202  0.46667832    -0.11800
C1650       C  0.85333658  0.26999032  0.46316757     0.02140
H1651       H  0.86040114  0.31249685  0.53106216     0.15120
H1652       H  0.81053961  0.24575002  0.44851400     0.15120
C1653       C  0.87039701  0.25915472  0.43569801     0.36770
C1654       C  0.80136649  0.29744778  0.54469619     0.36680
N1655       N  0.88381221  0.25051481  0.41348090    -0.43570
N1656       N  0.78882342  0.30457275  0.56796756    -0.43570
C1657       C  0.14958844  0.29712816  0.46950245     0.00020
C1658       C  0.16467280  0.30035022  0.49901466    -0.11860
C1659       C  0.19557598  0.28948230  0.50412213     0.02250
C1660       C  0.21272576  0.27517991  0.47927443    -0.00070
C1661       C  0.19801849  0.27225129  0.44972171    -0.11800
C1662       C  0.16714895  0.28308926  0.44449346     0.02140
H1663       H  0.15183533  0.31028379  0.51881431     0.15120
H1664       H  0.21103972  0.26201553  0.43022517     0.15120
C1665       C  0.15445321  0.27898350  0.41304491     0.36770
C1666       C  0.20845073  0.29298784  0.53548896     0.36680
N1667       N  0.14456734  0.27534975  0.38777117    -0.43570
N1668       N  0.21773503  0.29668356  0.56097983    -0.43570
C1669       C  0.01970591  0.27947149  0.34228161     0.00020
C1670       C  0.99144175  0.26599446  0.33047169    -0.11860
C1671       C  0.98934271  0.25487513  0.29921551     0.02250
C1672       C  0.01561883  0.25772451  0.27852815    -0.00070
C1673       C  0.04394241  0.27107145  0.29027067    -0.11800
C1674       C  0.04617447  0.28187117  0.32167527     0.02140
H1675       H  0.97116363  0.26289286  0.34616905     0.15120
H1676       H  0.06446688  0.27302328  0.27477570     0.15120
C1677       C  0.07566209  0.29603988  0.33186896     0.36770
C1678       C  0.95997988  0.24032073  0.28915987     0.36680
N1679       N  0.09929743  0.30761943  0.33983171    -0.43570
N1680       N  0.93629107  0.22860317  0.28153401    -0.43570
C1681       C  0.03017919  0.18000165  0.36952027     0.00020
C1682       C  0.00158086  0.17339078  0.35404744    -0.11860
C1683       C  0.00026907  0.15104017  0.33019357     0.02250
C1684       C  0.02741024  0.13325520  0.32340080    -0.00070
C1685       C  0.05693208  0.14355335  0.33487129    -0.11800
C1686       C  0.05860800  0.16801465  0.35695613     0.02140
H1687       H  0.98003823  0.18516665  0.36116463     0.15120
H1688       H  0.07838050  0.13162031  0.32784566     0.15120
C1689       C  0.08936551  0.17991333  0.36627551     0.36770
C1690       C  0.97105040  0.14721485  0.31286257     0.36680
N1691       N  0.11409361  0.18978728  0.37318133    -0.43570
N1692       N  0.94772134  0.14506204  0.29869092    -0.43570
C1693       C  0.98582729  0.22304642  0.62771625     0.00020
C1694       C  0.95603152  0.21069465  0.63699162    -0.11860
C1695       C  0.95405219  0.18676521  0.66016774     0.02250
C1696       C  0.98229311  0.17508236  0.67306637    -0.00070
C1697       C  0.01072742  0.19186617  0.66801464    -0.11800
C1698       C  0.01259361  0.21635173  0.64623082     0.02140
H1699       H  0.93499876  0.21689864  0.62377681     0.15120
H1700       H  0.03246230  0.18367765  0.67871836     0.15120
C1701       C  0.04329929  0.23103486  0.64068587     0.36770
C1702       C  0.92357157  0.17281878  0.66779965     0.36680
N1703       N  0.06815558  0.24239798  0.63683892    -0.43570
N1704       N  0.89886181  0.16232207  0.67419238    -0.43570
C1705       C  0.28607285  0.03272566  0.61882373     0.00020
C1706       C  0.26953247  0.05772021  0.63309258    -0.11860
C1707       C  0.26039111  0.05690156  0.66521345     0.02250
C1708       C  0.26824454  0.03093763  0.68485587    -0.00070
C1709       C  0.28527213  0.00610290  0.67104616    -0.11800
C1710       C  0.29401639  0.00666235  0.63858351     0.02140
H1711       H  0.26283507  0.07804024  0.61890137     0.15120
H1712       H  0.29169764  0.98603780  0.68575345     0.15120
C1713       C  0.31169828  0.98035860  0.62669829     0.36770
C1714       C  0.24372241  0.08375363  0.67747063     0.36680
N1715       N  0.32601395  0.95906136  0.61774917    -0.43570
N1716       N  0.23039314  0.10551366  0.68685092    -0.43570
C1717       C  0.28180171  0.16941682  0.48328325     0.00020
C1718       C  0.27748839  0.18629736  0.51159824    -0.11860
C1719       C  0.26519381  0.21704648  0.51173016     0.02250
C1720       C  0.25628938  0.23204994  0.48311441    -0.00070
C1721       C  0.26076125  0.21554238  0.45472311    -0.11800
C1722       C  0.27367316  0.18494843  0.45442894     0.02140
H1723       H  0.28338490  0.17528211  0.53409007     0.15120
H1724       H  0.25495135  0.22696427  0.43244202     0.15120
C1725       C  0.27806696  0.17042724  0.42393030     0.36770
C1726       C  0.26231284  0.23255051  0.54187572     0.36680
N1727       N  0.28162632  0.15921711  0.39925935    -0.43570
N1728       N  0.26060783  0.24407765  0.56658429    -0.43570
C1729       C  0.29515851  0.88804837  0.46552423     0.00020
C1730       C  0.29901169  0.87183151  0.49463429    -0.11860
C1731       C  0.28859495  0.84018652  0.49890988     0.02250
C1732       C  0.27435455  0.82347925  0.47368409    -0.00070
C1733       C  0.27160797  0.83897959  0.44434683    -0.11800
C1734       C  0.28187970  0.87053157  0.43989712     0.02140
H1735       H  0.30848695  0.88440107  0.51486183     0.15120
H1736       H  0.26138762  0.82630297  0.42458190     0.15120
C1737       C  0.27747434  0.88408661  0.40867843     0.36770
C1738       C  0.29062864  0.82622611  0.53015673     0.36680
N1739       N  0.27370915  0.89477608  0.38362685    -0.43570
N1740       N  0.29207551  0.81543644  0.55541955    -0.43570
C1741       C  0.29196899  0.01941420  0.33876954     0.00020
C1742       C  0.27484992  0.99242741  0.32835123    -0.11860
C1743       C  0.25922990  0.99163230  0.29900003     0.02250
C1744       C  0.26167304  0.01751168  0.27779363    -0.00070
C1745       C  0.27892096  0.04448385  0.28774982    -0.11800
C1746       C  0.29386959  0.04570142  0.31766794     0.02140
H1747       H  0.27237043  0.97187816  0.34378670     0.15120
H1748       H  0.28093890  0.06471896  0.27183974     0.15120
C1749       C  0.31124935  0.07414431  0.32562296     0.36770
C1750       C  0.24060236  0.96380344  0.29161281     0.36680
N1751       N  0.32521032  0.09706981  0.33164530    -0.43570
N1752       N  0.22557070  0.94129327  0.28659684    -0.43570
C1753       C  0.18650647  0.14775362  0.48932138     0.00020
C1754       C  0.16479049  0.14479310  0.46433160    -0.11860
C1755       C  0.13853089  0.16402236  0.46224632     0.02250
C1756       C  0.13538401  0.18912952  0.48341929    -0.00070
C1757       C  0.15722459  0.19269720  0.50831451    -0.11800
C1758       C  0.18208038  0.17141823  0.51211753     0.02140
H1759       H  0.16677416  0.12557246  0.44777520     0.15120
H1760       H  0.15372002  0.21099845  0.52580603     0.15120
C1761       C  0.20127441  0.17325585  0.54026059     0.36770
C1762       C  0.11262903  0.15384646  0.44235711     0.36680
N1763       N  0.21615815  0.17429919  0.56321411    -0.43570
N1764       N  0.09142263  0.14451846  0.42769157    -0.43570
C1765       C  0.13210706  0.01672268  0.32420844     0.00020
C1766       C  0.15615926  0.03854103  0.31571647    -0.11860
C1767       C  0.18617662  0.03612983  0.32898328     0.02250
C1768       C  0.19277388  0.01032767  0.34913596    -0.00070
C1769       C  0.17074222  0.98581789  0.35293271    -0.11800
C1770       C  0.13976974  0.99004636  0.34334426     0.02140
H1771       H  0.15091164  0.05886888  0.30088911     0.15120
H1772       H  0.17590610  0.96638144  0.36901664     0.15120
C1773       C  0.11646851  0.96884667  0.35761387     0.36770
C1774       C  0.20820176  0.06238324  0.32522880     0.36680
N1775       N  0.09820366  0.95228785  0.37021506    -0.43570
N1776       N  0.22543554  0.08379832  0.32244690    -0.43570
C1777       C  0.14132492  0.04135702  0.64844033     0.00020
C1778       C  0.15879405  0.01350071  0.64541286    -0.11860
C1779       C  0.18460712  0.01248633  0.62461237     0.02250
C1780       C  0.19297769  0.03965349  0.60659624    -0.00070
C1781       C  0.17924200  0.06850658  0.61370769    -0.11800
C1782       C  0.15352475  0.06971354  0.63430870     0.02140
H1783       H  0.15126922  0.99203364  0.65773207     0.15120
H1784       H  0.18654926  0.08978127  0.60082795     0.15120
C1785       C  0.13994269  0.10047434  0.63875866     0.36770
C1786       C  0.20133322  0.98315929  0.62113974     0.36680
N1787       N  0.13024544  0.12578194  0.64120342    -0.43570
N1788       N  0.21492362  0.95976281  0.61838226    -0.43570
C1789       C  0.76033165  0.22430778  0.49568382     0.00020
C1790       C  0.75355523  0.20817865  0.46741625    -0.11860
C1791       C  0.74523315  0.17561756  0.46744395     0.02250
C1792       C  0.74287751  0.15824812  0.49643642    -0.00070
C1793       C  0.74896579  0.17502496  0.52467711    -0.11800
C1794       C  0.75786535  0.20723403  0.52448291     0.02140
H1795       H  0.75506221  0.22106599  0.44509242     0.15120
H1796       H  0.74773805  0.16277008  0.54735923     0.15120
C1797       C  0.76461354  0.22206549  0.55441686     0.36770
C1798       C  0.74002494  0.16087624  0.43717248     0.36680
N1799       N  0.76984440  0.23348747  0.57870016    -0.43570
N1800       N  0.73604925  0.14940169  0.41267478    -0.43570
C1801       C  0.76174734  0.99721751  0.29289108     0.00020
C1802       C  0.76600075  0.02520695  0.31005257    -0.11860
C1803       C  0.75578324  0.02761468  0.34174278     0.02250
C1804       C  0.74172646  0.00117722  0.35774395    -0.00070
C1805       C  0.73750052  0.97310731  0.34052916    -0.11800
C1806       C  0.74667629  0.97110849  0.30840748     0.02140
H1807       H  0.77725415  0.04551001  0.29850256     0.15120
H1808       H  0.72728379  0.95243821  0.35237329     0.15120
C1809       C  0.74042887  0.94174693  0.29234622     0.36770
C1810       C  0.76163283  0.05725440  0.35753335     0.36680
N1811       N  0.73468288  0.91797762  0.28007318    -0.43570
N1812       N  0.76634203  0.08120761  0.36983982    -0.43570
C1813       C  0.74897366  0.03197697  0.63753627     0.00020
C1814       C  0.76060370  0.06131050  0.64867981    -0.11860
C1815       C  0.77390482  0.06464689  0.67897439     0.02250
C1816       C  0.77502710  0.03857330  0.70006972    -0.00070
C1817       C  0.76307568  0.00926411  0.68941023    -0.11800
C1818       C  0.75022290  0.00572840  0.65872917     0.02140
H1819       H  0.76046825  0.08193306  0.63320140     0.15120
H1820       H  0.76301945  0.98914189  0.70555577     0.15120
C1821       C  0.73765826  0.97504239  0.65033813     0.36770
C1822       C  0.78635171  0.09538466  0.68724535     0.36680
N1823       N  0.72749667  0.95030791  0.64408587    -0.43570
N1824       N  0.79636001  0.12046911  0.69224636    -0.43570
C1825       C  0.74398521  0.87711762  0.49515737     0.00020
C1826       C  0.75661628  0.86490198  0.52360104    -0.11860
C1827       C  0.77064509  0.83485567  0.52485204     0.02250
C1828       C  0.77238820  0.81621383  0.49734343    -0.00070
C1829       C  0.75938010  0.82814552  0.46913085    -0.11800
C1830       C  0.74509103  0.85786212  0.46784184     0.02140
H1831       H  0.75672931  0.87935010  0.54471141     0.15120
H1832       H  0.75985956  0.81373626  0.44800305     0.15120
C1833       C  0.73152662  0.86776173  0.43804770     0.36770
C1834       C  0.78262273  0.82338907  0.55474179     0.36680
N1835       N  0.72070852  0.87560140  0.41411531    -0.43570
N1836       N  0.79217963  0.81414054  0.57872025    -0.43570
C1837       C  0.85184820  0.13723555  0.52815898     0.00020
C1838       C  0.84175610  0.16763779  0.53618118    -0.11860
C1839       C  0.86431464  0.19160466  0.54133916     0.02250
C1840       C  0.89642584  0.18492276  0.53686907    -0.00070
C1841       C  0.90613189  0.15350246  0.53528681    -0.11800
C1842       C  0.88408363  0.12954135  0.53077156     0.02140
H1843       H  0.81672630  0.17274433  0.53747210     0.15120
H1844       H  0.93119498  0.14814571  0.53412069     0.15120
C1845       C  0.89537611  0.09757574  0.52778008     0.36770
C1846       C  0.85476058  0.22179499  0.55310977     0.36680
N1847       N  0.90476324  0.07210950  0.52557107    -0.43570
N1848       N  0.84777981  0.24545711  0.56451726    -0.43570
C1849       C  0.87538972  0.98632920  0.31431665     0.00020
C1850       C  0.86757498  0.95831641  0.33084270    -0.11860
C1851       C  0.84888369  0.95940383  0.35838868     0.02250
C1852       C  0.83887911  0.98910478  0.36967371    -0.00070
C1853       C  0.84185322  0.01566490  0.34993158    -0.11800
C1854       C  0.85933921  0.01442851  0.32207361     0.02140
H1855       H  0.87877227  0.93634097  0.32441017     0.15120
H1856       H  0.83191115  0.03802027  0.35716894     0.15120
C1857       C  0.86327014  0.04356316  0.30424105     0.36770
C1858       C  0.84252985  0.93025932  0.37555477     0.36680
N1859       N  0.86587312  0.06742631  0.29074226    -0.43570
N1860       N  0.83729216  0.90677311  0.38906285    -0.43570
C1861       C  0.83448552  0.05149148  0.62777634     0.00020
C1862       C  0.83903119  0.02490382  0.64705326    -0.11860
C1863       C  0.86131858  0.02552832  0.67102117     0.02250
C1864       C  0.87821175  0.05396673  0.67723666    -0.00070
C1865       C  0.86911733  0.08197019  0.66193582    -0.11800
C1866       C  0.84771187  0.08091125  0.63670154     0.02140
H1867       H  0.82761161  0.00253738  0.64112797     0.15120
H1868       H  0.88178113  0.10382044  0.66672018     0.15120
C1869       C  0.84241759  0.10952764  0.61871886     0.36770
C1870       C  0.86931483  0.99541863  0.68505057     0.36680
N1871       N  0.83820722  0.13271543  0.60467519    -0.43570
N1872       N  0.87526864  0.97067754  0.69514065    -0.43570
C1873       C  0.22899639  0.78135677  0.47580333     0.00020
C1874       C  0.21143257  0.78334822  0.50388275    -0.11860
C1875       C  0.17941540  0.77374435  0.50540970     0.02250
C1876       C  0.16348007  0.76244433  0.47795091    -0.00070
C1877       C  0.18125301  0.76096874  0.44958342    -0.11800
C1878       C  0.21354392  0.77008058  0.44836646     0.02140
H1879       H  0.22295379  0.79236680  0.52495754     0.15120
H1880       H  0.16982381  0.75301739  0.42804863     0.15120
C1881       C  0.23013968  0.76816642  0.41848054     0.36770
C1882       C  0.16359357  0.77761458  0.53541428     0.36680
N1883       N  0.24338725  0.76663853  0.39446004    -0.43570
N1884       N  0.15153915  0.78101324  0.55978871    -0.43570
C1885       C  0.01712546  0.74218048  0.35409565     0.00020
C1886       C  0.98675129  0.74429473  0.34035490    -0.11860
C1887       C  0.98276520  0.75355391  0.30835858     0.02250
C1888       C  0.00931009  0.76190407  0.28937248    -0.00070
C1889       C  0.03951486  0.75895978  0.30261773    -0.11800
C1890       C  0.04375801  0.74846565  0.33400015     0.02140
H1891       H  0.96588142  0.73956725  0.35482350     0.15120
H1892       H  0.06015546  0.76412116  0.28800943     0.15120
C1893       C  0.07602251  0.74516790  0.34467290     0.36770
C1894       C  0.95115552  0.75478945  0.29563170     0.36680
N1895       N  0.10194383  0.74266317  0.35306850    -0.43570
N1896       N  0.92579569  0.75566919  0.28538316    -0.43570
C1897       C  0.02709541  0.76949649  0.63407137     0.00020
C1898       C  0.00149241  0.76746042  0.65566394    -0.11860
C1899       C  0.00429604  0.77842310  0.68707682     0.02250
C1900       C  0.03307748  0.79215245  0.69769646    -0.00070
C1901       C  0.05820395  0.79521527  0.67602027    -0.11800
C1902       C  0.05566943  0.78385926  0.64485090     0.02140
H1903       H  0.97895815  0.75776226  0.64781348     0.15120
H1904       H  0.08018782  0.80630801  0.68364547     0.15120
C1905       C  0.08246604  0.78911899  0.62412850     0.36770
C1906       C  0.97693297  0.77637960  0.70767088     0.36680
N1907       N  0.10428586  0.79368837  0.60797269    -0.43570
N1908       N  0.95495652  0.77484561  0.72417041    -0.43570
C1909       C  0.88273458  0.75880045  0.51040835     0.00020
C1910       C  0.87242716  0.77620936  0.48387439    -0.11860
C1911       C  0.84066842  0.78483655  0.48020359     0.02250
C1912       C  0.81769616  0.77518659  0.50286166    -0.00070
C1913       C  0.82796791  0.75782435  0.52962645    -0.11800
C1914       C  0.86011218  0.74972128  0.53357784     0.02140
H1915       H  0.88957028  0.78389621  0.46609108     0.15120
H1916       H  0.81092833  0.75088177  0.54772274     0.15120
C1917       C  0.86918615  0.73146829  0.56102600     0.36770
C1918       C  0.83250644  0.80376770  0.45286744     0.36680
N1919       N  0.87644726  0.71662942  0.58294552    -0.43570
N1920       N  0.82641527  0.81922108  0.43099425    -0.43570
C1921       C  0.85443002  0.89869472  0.48416016     0.00020
C1922       C  0.85212918  0.87480968  0.50737980    -0.11860
C1923       C  0.87885884  0.85796069  0.51656009     0.02250
C1924       C  0.90833737  0.86470471  0.50165365    -0.00070
C1925       C  0.90957310  0.88678239  0.47645242    -0.11800
C1926       C  0.88311257  0.90389625  0.46782857     0.02140
H1927       H  0.83024166  0.87177888  0.52073319     0.15120
H1928       H  0.93176397  0.89215219  0.46436603     0.15120
C1929       C  0.88738371  0.92988496  0.44559251     0.36770
C1930       C  0.87565438  0.83635401  0.54314164     0.36680
N1931       N  0.89133198  0.95093185  0.42819421    -0.43570
N1932       N  0.87298597  0.81934434  0.56469184    -0.43570
C1933       C  0.14845071  0.85166766  0.43913035     0.00020
C1934       C  0.17201203  0.85144474  0.46238761    -0.11860
C1935       C  0.19274551  0.87703389  0.46549047     0.02250
C1936       C  0.19128098  0.90233216  0.44367810    -0.00070
C1937       C  0.17101999  0.90031887  0.41750269    -0.11800
C1938       C  0.14896937  0.87537955  0.41544197     0.02140
H1939       H  0.17107331  0.83363926  0.48100694     0.15120
H1940       H  0.16995313  0.91987556  0.40077419     0.15120
C1941       C  0.12412662  0.87742789  0.39215641     0.36770
C1942       C  0.21244699  0.87841883  0.49334750     0.36680
N1943       N  0.10397214  0.87943414  0.37378744    -0.43570
N1944       N  0.22758675  0.87947625  0.51611491    -0.43570
C1945       C  0.01330167  0.82321832  0.34620308     0.00020
C1946       C  0.98120777  0.82817602  0.33819293    -0.11860
C1947       C  0.97318346  0.85183478  0.31648707     0.02250
C1948       C  0.99769251  0.86893741  0.30134958    -0.00070
C1949       C  0.02889430  0.85745315  0.30298706    -0.11800
C1950       C  0.03701851  0.83487734  0.32562891     0.02140
H1951       H  0.96248513  0.81725705  0.35245228     0.15120
H1952       H  0.04773125  0.86921068  0.28954502     0.15120
C1953       C  0.07000049  0.82730206  0.32952364     0.36770
C1954       C  0.94050182  0.86105138  0.31392458     0.36680
N1955       N  0.09646993  0.82109092  0.33221737    -0.43570
N1956       N  0.91429570  0.86846595  0.31193658    -0.43570
C1957       C  0.03303821  0.91804691  0.65411559     0.00020
C1958       C  0.00528516  0.89923516  0.65326701    -0.11860
C1959       C  0.00177206  0.87535150  0.63093847     0.02250
C1960       C  0.02654602  0.87029687  0.60910716    -0.00070
C1961       C  0.05609844  0.88564176  0.61387062    -0.11800
C1962       C  0.05942755  0.90971157  0.63586469     0.02140
H1963       H  0.98541490  0.90476587  0.66856800     0.15120
H1964       H  0.07624101  0.88058017  0.59877930     0.15120
C1965       C  0.08890569  0.92754623  0.63650138     0.36770
C1966       C  0.97198912  0.85812363  0.62996952     0.36680
N1967       N  0.11253576  0.94179650  0.63681160    -0.43570
N1968       N  0.94813000  0.84427082  0.62938497    -0.43570
C1969       C  0.75370118  0.23156570  0.99113028     0.00020
C1970       C  0.74890442  0.21332583  0.01888431    -0.11860
C1971       C  0.75997650  0.18205753  0.02144456     0.02250
C1972       C  0.77557646  0.16781179  0.99548111    -0.00070
C1973       C  0.77980780  0.18604661  0.96761855    -0.11800
C1974       C  0.76909735  0.21724924  0.96517957     0.02140
H1975       H  0.73711821  0.22384830  0.03901501     0.15120
H1976       H  0.79114933  0.17564571  0.94715474     0.15120
C1977       C  0.77365843  0.23347229  0.93522460     0.36770
C1978       C  0.75438320  0.16508733  0.05082280     0.36680
N1979       N  0.77778469  0.24585442  0.91092452    -0.43570
N1980       N  0.75012146  0.15152968  0.07446977    -0.43570
C1981       C  0.80007374  0.88837714  0.99787815     0.00020
C1982       C  0.78455545  0.87154208  0.02283371    -0.11860
C1983       C  0.77336546  0.84019682  0.01936396     0.02250
C1984       C  0.77747269  0.82422083  0.99048448    -0.00070
C1985       C  0.79408195  0.84022722  0.96594673    -0.11800
C1986       C  0.80546836  0.87163707  0.96936894     0.02140
H1987       H  0.78006636  0.88315597  0.04517906     0.15120
H1988       H  0.79851385  0.82792004  0.94397523     0.15120
C1989       C  0.82337979  0.88539714  0.94337913     0.36770
C1990       C  0.75821654  0.82473497  0.04619832     0.36680
N1991       N  0.83806836  0.89569524  0.92235457    -0.43570
N1992       N  0.74608453  0.81256011  0.06785637    -0.43570
C1993       C  0.78405052  0.04356208  0.85715235     0.00020
C1994       C  0.76906129  0.06984107  0.84295091    -0.11860
C1995       C  0.75937830  0.06973512  0.81101358     0.02250
C1996       C  0.76547102  0.04346718  0.79173356    -0.00070
C1997       C  0.78049235  0.01735553  0.80555048    -0.11800
C1998       C  0.78981661  0.01710133  0.83753515     0.02140
H1999       H  0.76374300  0.09038615  0.85708785     0.15120
H2000       H  0.78512139  0.99686595  0.79109055     0.15120
C2001       C  0.80541886  0.98911882  0.84882416     0.36770
C2002       C  0.74311505  0.09692803  0.79861152     0.36680
N2003       N  0.81790887  0.96619682  0.85668336    -0.43570
N2004       N  0.72992936  0.11872130  0.78882028    -0.43570
C2005       C  0.76165410  0.00254142  0.20048674     0.00020
C2006       C  0.77223131  0.03201197  0.18842427    -0.11860
C2007       C  0.78685680  0.03508287  0.15833164     0.02250
C2008       C  0.78965876  0.00841355  0.13832480    -0.00070
C2009       C  0.78003257  0.97873567  0.15115775    -0.11800
C2010       C  0.76666788  0.97559999  0.18169636     0.02140
H2011       H  0.76946317  0.05285804  0.20289781     0.15120
H2012       H  0.78214178  0.95760968  0.13697107     0.15120
C2013       C  0.75851504  0.94421775  0.19301824     0.36770
C2014       C  0.79819322  0.06614519  0.14891666     0.36680
N2015       N  0.75222094  0.91879257  0.20160648    -0.43570
N2016       N  0.80735397  0.09125353  0.14210568    -0.43570
C2017       C  0.25890402  0.87841670  0.99228905     0.00020
C2018       C  0.25191983  0.86165844  0.96430638    -0.11860
C2019       C  0.26274202  0.83067626  0.95952729     0.02250
C2020       C  0.28086443  0.81536474  0.98310143    -0.00070
C2021       C  0.28854719  0.83202645  0.01042567    -0.11800
C2022       C  0.27767784  0.86271170  0.01545903     0.02140
H2023       H  0.23857989  0.87298720  0.94558140     0.15120
H2024       H  0.30229779  0.82037858  0.02870258     0.15120
C2025       C  0.28707430  0.87672109  0.04491483     0.36770
C2026       C  0.25563721  0.81553369  0.92982589     0.36680
N2027       N  0.29570685  0.88650828  0.06888759    -0.43570
N2028       N  0.24991457  0.80365038  0.90586519    -0.43570
C2029       C  0.23810001  0.15872308  0.97423625     0.00020
C2030       C  0.25298347  0.17056009  0.00160661    -0.11860
C2031       C  0.26398961  0.20206086  0.00330288     0.02250
C2032       C  0.25970373  0.22304870  0.97746568    -0.00070
C2033       C  0.24474243  0.21130866  0.95010341    -0.11800
C2034       C  0.23384018  0.17977449  0.94833797     0.02140
H2035       H  0.25723498  0.15479036  0.02151254     0.15120
H2036       H  0.24147613  0.22700212  0.92992503     0.15120
C2037       C  0.21799182  0.16991297  0.91974751     0.36770
C2038       C  0.27962298  0.21188943  0.03197320     0.36680
N2039       N  0.20521919  0.16211855  0.89682080    -0.43570
N2040       N  0.29225714  0.21891762  0.05521838    -0.43570
C2041       C  0.27132013  0.02529510  0.77758439     0.00020
C2042       C  0.26955702  0.05347808  0.79466132    -0.11860
C2043       C  0.25519034  0.05437381  0.82480393     0.02250
C2044       C  0.24510735  0.02590188  0.84050744    -0.00070
C2045       C  0.24678001  0.99762891  0.82316641    -0.11800
C2046       C  0.25842130  0.99737798  0.79171265     0.02140
H2047       H  0.27783766  0.07534573  0.78351768     0.15120
H2048       H  0.23884695  0.97557064  0.83411726     0.15120
C2049       C  0.25736413  0.96797977  0.77461702     0.36770
C2050       C  0.25040471  0.08522115  0.83829625     0.36680
N2051       N  0.25677723  0.94424248  0.76116611    -0.43570
N2052       N  0.24622341  0.10996847  0.84892827    -0.43570
C2053       C  0.26313228  0.01419932  0.18527581     0.00020
C2054       C  0.26936008  0.98676215  0.16844946    -0.11860
C2055       C  0.26002492  0.98323580  0.13686300     0.02250
C2056       C  0.24430397  0.00799640  0.12030966    -0.00070
C2057       C  0.23855829  0.03598021  0.13730803    -0.11800
C2058       C  0.24801490  0.03932513  0.16924132     0.02140
H2059       H  0.28142040  0.96754385  0.18030760     0.15120
H2060       H  0.22776884  0.05587698  0.12534481     0.15120
C2061       C  0.24379229  0.06946517  0.18430054     0.36770
C2062       C  0.26804519  0.95371135  0.12254357     0.36680
N2063       N  0.24050415  0.09378396  0.19616165    -0.43570
N2064       N  0.27498153  0.92972405  0.11190299    -0.43570
C2065       C  0.51308131  0.21882228  0.23832641     0.00020
C2066       C  0.48396169  0.20293372  0.23548326    -0.11860
C2067       C  0.47954541  0.17185663  0.24671529     0.02250
C2068       C  0.50573060  0.15385890  0.25731800    -0.00070
C2069       C  0.53509747  0.16986698  0.26017246    -0.11800
C2070       C  0.53859910  0.20222656  0.25207869     0.02140
H2071       H  0.46392420  0.21558868  0.22595410     0.15120
H2072       H  0.55544465  0.15718492  0.26895803     0.15120
C2073       C  0.56850405  0.21762121  0.25869551     0.36770
C2074       C  0.44729018  0.16046214  0.24925945     0.36680
N2075       N  0.59258285  0.22955622  0.26467517    -0.43570
N2076       N  0.42117247  0.15226279  0.25215613    -0.43570
C2077       C  0.51754887  0.87281521  0.25680855     0.00020
C2078       C  0.54597594  0.85983193  0.24498616    -0.11860
C2079       C  0.54687115  0.82977200  0.23089523     0.02250
C2080       C  0.51911229  0.81101751  0.22845353    -0.00070
C2081       C  0.49076440  0.82344792  0.24055269    -0.11800
C2082       C  0.48964935  0.85378970  0.25435538     0.02140
H2083       H  0.56786690  0.87353944  0.24589216     0.15120
H2084       H  0.46938275  0.80901283  0.24002974     0.15120
C2085       C  0.45935136  0.86447881  0.26557950     0.36770
C2086       C  0.57685591  0.81863853  0.21922479     0.36680
N2087       N  0.43486587  0.87271627  0.27446336    -0.43570
N2088       N  0.60102692  0.80994019  0.20994538    -0.43570
C2089       C  0.30719472  0.01540765  0.22738740     0.00020
C2090       C  0.32362377  0.04426311  0.22543238    -0.11860
C2091       C  0.35435675  0.04773105  0.23748388     0.02250
C2092       C  0.37021150  0.02145080  0.25129438    -0.00070
C2093       C  0.35367008  0.99220404  0.25243216    -0.11800
C2094       C  0.32259022  0.98905618  0.24077036     0.02140
H2095       H  0.31182232  0.06463617  0.21536284     0.15120
H2096       H  0.36514898  0.97146918  0.26204100     0.15120
C2097       C  0.30714285  0.95840843  0.24241707     0.36770
C2098       C  0.36880760  0.07864360  0.23391842     0.36680
N2099       N  0.29500128  0.93369135  0.24366078    -0.43570
N2100       N  0.37984664  0.10360357  0.23021174    -0.43570
C2101       C  0.64992526  0.99900916  0.26139502     0.00020
C2102       C  0.66819517  0.02722232  0.26327704    -0.11860
C2103       C  0.70042981  0.02841876  0.25388929     0.02250
C2104       C  0.71526640  0.00120635  0.24192811    -0.00070
C2105       C  0.69719707  0.97333809  0.23978527    -0.11800
C2106       C  0.66546604  0.97164849  0.24977396     0.02140
H2107       H  0.65714713  0.04871288  0.27132213     0.15120
H2108       H  0.70817497  0.95220392  0.23105377     0.15120
C2109       C  0.64991795  0.94105802  0.24738121     0.36770
C2110       C  0.71768780  0.05803635  0.25606645     0.36680
N2111       N  0.63765255  0.91648495  0.24528956    -0.43570
N2112       N  0.73157165  0.08177891  0.25779352    -0.43570
C2113       C  0.38058894  0.02290854  0.16338505     0.00020
C2114       C  0.36844483  0.05155651  0.15211436    -0.11860
C2115       C  0.34781008  0.05190614  0.12630753     0.02250
C2116       C  0.34045441  0.02334484  0.11058066    -0.00070
C2117       C  0.34806519  0.99476801  0.12505932    -0.11800
C2118       C  0.36766677  0.99409840  0.15137275     0.02140
H2119       H  0.37618651  0.07378856  0.16234493     0.15120
H2120       H  0.34012807  0.97268781  0.11474532     0.15120
C2121       C  0.37465341  0.96304570  0.16376156     0.36770
C2122       C  0.33407893  0.08162328  0.11702377     0.36680
N2123       N  0.37898861  0.93749318  0.17259593    -0.43570
N2124       N  0.32266174  0.10544946  0.11024790    -0.43570
C2125       C  0.68711298  0.98262056  0.12028125     0.00020
C2126       C  0.66529401  0.95745550  0.11825007    -0.11860
C2127       C  0.63801707  0.95730841  0.13704814     0.02250
C2128       C  0.63377695  0.98188946  0.15886161    -0.00070
C2129       C  0.65778020  0.00419041  0.16406051    -0.11800
C2130       C  0.68411156  0.00530160  0.14439026     0.02140
H2131       H  0.66724027  0.94061726  0.09910796     0.15120
H2132       H  0.65435108  0.02273775  0.18135366     0.15120
C2133       C  0.70429079  0.03307226  0.14602011     0.36770
C2134       C  0.61307609  0.93464470  0.13031857     0.36680
N2135       N  0.71912466  0.05623544  0.14749355    -0.43570
N2136       N  0.59315238  0.91661814  0.12429358    -0.43570
C2137       C  0.64469446  0.29048593  0.00134606     0.00020
C2138       C  0.65734538  0.28229791  0.97165383    -0.11860
C2139       C  0.68912476  0.27352121  0.96804273     0.02250
C2140       C  0.70984507  0.27390289  0.99422829    -0.00070
C2141       C  0.69747702  0.28255210  0.02397725    -0.11800
C2142       C  0.66517574  0.29020544  0.02781089     0.02140
H2143       H  0.64182111  0.28112491  0.95124408     0.15120
H2144       H  0.71303320  0.28290502  0.04436212     0.15120
C2145       C  0.65366324  0.29785313  0.05903013     0.36770
C2146       C  0.69932709  0.26334390  0.93716780     0.36680
N2147       N  0.64439447  0.30394545  0.08408248    -0.43570
N2148       N  0.70646373  0.25507831  0.91208521    -0.43570
C2149       C  0.30374548  0.26605761  0.98261506     0.00020
C2150       C  0.32352149  0.26237330  0.95631077    -0.11860
C2151       C  0.35245004  0.27912139  0.95373851     0.02250
C2152       C  0.36583330  0.29374708  0.98060013    -0.00070
C2153       C  0.34706922  0.29521779  0.00830427    -0.11800
C2154       C  0.31558271  0.28335879  0.00871991     0.02140
H2155       H  0.31353976  0.25100616  0.93576013     0.15120
H2156       H  0.35649280  0.30677228  0.02915320     0.15120
C2157       C  0.29554871  0.29015770  0.03553427     0.36770
C2158       C  0.36560964  0.28502318  0.92251633     0.36680
N2159       N  0.27936443  0.29573210  0.05693586    -0.43570
N2160       N  0.37634204  0.29107666  0.89782283    -0.43570
C2161       C  0.50794389  0.30901110  0.84812319     0.00020
C2162       C  0.48013573  0.30918546  0.82977759    -0.11860
C2163       C  0.47961224  0.29817366  0.79842583     0.02250
C2164       C  0.50736064  0.28628300  0.78420843    -0.00070
C2165       C  0.53549457  0.28732540  0.80182044    -0.11800
C2166       C  0.53618688  0.29863063  0.83317490     0.02140
H2167       H  0.45817502  0.31714405  0.84026385     0.15120
H2168       H  0.55714625  0.27893814  0.79107561     0.15120
C2169       C  0.56616498  0.29785055  0.84945552     0.36770
C2170       C  0.44997795  0.29971276  0.78174312     0.36680
N2171       N  0.59035846  0.29707360  0.86222147    -0.43570
N2172       N  0.42570068  0.30202593  0.76938546    -0.43570
C2173       C  0.51272647  0.27892095  0.12825118     0.00020
C2174       C  0.54056643  0.26784768  0.14270800    -0.11860
C2175       C  0.54142867  0.25868633  0.17476126     0.02250
C2176       C  0.51427724  0.26142457  0.19419078    -0.00070
C2177       C  0.48645402  0.27286042  0.18022098    -0.11800
C2178       C  0.48525269  0.28111986  0.14772375     0.02140
H2179       H  0.56202130  0.26556727  0.12870859     0.15120
H2180       H  0.46531548  0.27483451  0.19477145     0.15120
C2181       C  0.45494656  0.29011795  0.13521081     0.36770
C2182       C  0.57109939  0.24731750  0.18675388     0.36680
N2183       N  0.43021542  0.29694305  0.12588640    -0.43570
N2184       N  0.59560152  0.23844771  0.19481215    -0.43570
C2185       C  0.50252661  0.13465409  0.15249291     0.00020
C2186       C  0.53048053  0.13621247  0.13402986    -0.11860
C2187       C  0.53250279  0.15466409  0.10651555     0.02250
C2188       C  0.50649572  0.17284492  0.09733047    -0.00070
C2189       C  0.47895825  0.17248618  0.11623491    -0.11800
C2190       C  0.47666980  0.15353518  0.14357035     0.02140
H2191       H  0.55047761  0.12161912  0.14001670     0.15120
H2192       H  0.45899114  0.18687526  0.10940415     0.15120
C2193       C  0.44747905  0.15388647  0.16153255     0.36770
C2194       C  0.56046274  0.15236900  0.08682076     0.36680
N2195       N  0.42387453  0.15428078  0.17559544    -0.43570
N2196       N  0.58272593  0.15013396  0.07092259    -0.43570
C2197       C  0.38819393  0.19296347  0.92264565     0.00020
C2198       C  0.39940107  0.16214941  0.92585429    -0.11860
C2199       C  0.37836456  0.13724136  0.93113220     0.02250
C2200       C  0.34565339  0.14334281  0.93260525    -0.00070
C2201       C  0.33442111  0.17243240  0.92189311    -0.11800
C2202       C  0.35594140  0.19713829  0.91538327     0.02140
H2203       H  0.42461901  0.15822641  0.92866210     0.15120
H2204       H  0.30919203  0.17583123  0.91876040     0.15120
C2205       C  0.34573744  0.22156331  0.89404679     0.36770
C2206       C  0.39120049  0.10618575  0.93654028     0.36680
N2207       N  0.33626594  0.23951509  0.87562686    -0.43570
N2208       N  0.40212236  0.08154271  0.94053491    -0.43570
C2209       C  0.68027640  0.14979898  0.99189030     0.00020
C2210       C  0.67309355  0.16433227  0.96286540    -0.11860
C2211       C  0.64798593  0.18541122  0.96069943     0.02250
C2212       C  0.62934584  0.19155287  0.98790890    -0.00070
C2213       C  0.63992026  0.18122235  0.01745181    -0.11800
C2214       C  0.66513845  0.16070118  0.01983532     0.02140
H2215       H  0.68566299  0.15777914  0.94147082     0.15120
H2216       H  0.62725112  0.18759948  0.03884740     0.15120
C2217       C  0.67321568  0.15069186  0.05154025     0.36770
C2218       C  0.64251522  0.20046376  0.93043701     0.36680
N2219       N  0.67820831  0.14400373  0.07768217    -0.43570
N2220       N  0.63936496  0.21258942  0.90597132    -0.43570
C2221       C  0.66358994  0.03727537  0.71652411     0.00020
C2222       C  0.67705290  0.01142960  0.73292653    -0.11860
C2223       C  0.70699723  0.01359212  0.74717221     0.02250
C2224       C  0.72476409  0.04200976  0.74540479    -0.00070
C2225       C  0.71211147  0.06759208  0.72830756    -0.11800
C2226       C  0.68211844  0.06546462  0.71380247     0.02140
H2227       H  0.66385772  0.98934049  0.73548015     0.15120
H2228       H  0.72613234  0.08917639  0.72568407     0.15120
C2229       C  0.67168715  0.09233524  0.69554146     0.36770
C2230       C  0.71949049  0.98581369  0.76253099     0.36680
N2231       N  0.66382743  0.11396874  0.68068645    -0.43570
N2232       N  0.72938997  0.96345000  0.77477113    -0.43570
C2233       C  0.38356430  0.03345406  0.71851392     0.00020
C2234       C  0.37230019  0.01009211  0.73980101    -0.11860
C2235       C  0.34019113  0.00817199  0.74908961     0.02250
C2236       C  0.31765652  0.02920777  0.73597451    -0.00070
C2237       C  0.32935709  0.05316730  0.71523261    -0.11800
C2238       C  0.36157542  0.05526987  0.70633342     0.02140
H2239       H  0.38907549  0.99406838  0.75056174     0.15120
H2240       H  0.31327422  0.07070712  0.70604273     0.15120
C2241       C  0.37136190  0.07979746  0.68416875     0.36770
C2242       C  0.33205479  0.98491190  0.77308415     0.36680
N2243       N  0.37917767  0.09937675  0.66628639    -0.43570
N2244       N  0.32704243  0.96626482  0.79282824    -0.43570
C2245       C  0.51126490  0.17735861  0.71999613     0.00020
C2246       C  0.48249082  0.19372131  0.72053197    -0.11860
C2247       C  0.48086883  0.22526082  0.73070215     0.02250
C2248       C  0.50819967  0.24114660  0.74218847    -0.00070
C2249       C  0.53697687  0.22500782  0.74151024    -0.11800
C2250       C  0.53899869  0.19400623  0.72979254     0.02140
H2251       H  0.46094767  0.18181300  0.71287174     0.15120
H2252       H  0.55828294  0.23699232  0.74961298     0.15120
C2253       C  0.56994023  0.17992630  0.72918146     0.36770
C2254       C  0.45085055  0.24072526  0.72776649     0.36680
N2255       N  0.59490191  0.16896215  0.72901683    -0.43570
N2256       N  0.42636346  0.25211605  0.72418026    -0.43570
C2257       C  0.54245120  0.89752271  0.71396104     0.00020
C2258       C  0.56619811  0.88385092  0.73294994    -0.11860
C2259       C  0.56496006  0.85186180  0.74242190     0.02250
C2260       C  0.53976492  0.83184514  0.73258848    -0.00070
C2261       C  0.51635966  0.84513127  0.71307267    -0.11800
C2262       C  0.51767157  0.87716550  0.70337403     0.02140
H2263       H  0.58544073  0.89850829  0.74182784     0.15120
H2264       H  0.49655687  0.83043419  0.70559689     0.15120
C2265       C  0.49312452  0.88799896  0.68243593     0.36770
C2266       C  0.59014919  0.84054926  0.76235968     0.36680
N2267       N  0.47332263  0.89592866  0.66536808    -0.43570
N2268       N  0.61062153  0.83210911  0.77835973    -0.43570
C2269       C  0.49391111  0.17053301  0.80444208     0.00020
C2270       C  0.46265316  0.17975186  0.81115024    -0.11860
C2271       C  0.45707820  0.20622158  0.83003741     0.02250
C2272       C  0.48297087  0.22380199  0.84157862    -0.00070
C2273       C  0.51300365  0.21875316  0.82863616    -0.11800
C2274       C  0.51915000  0.19155504  0.81183832     0.02140
H2275       H  0.44278774  0.16474687  0.80438321     0.15120
H2276       H  0.53301051  0.23270456  0.83700222     0.15120
C2277       C  0.55212345  0.18522891  0.80587682     0.36770
C2278       C  0.42516879  0.21299874  0.83956513     0.36680
N2279       N  0.57902076  0.18187945  0.80210170    -0.43570
N2280       N  0.39937014  0.21857015  0.84657971    -0.43570
C2281       C  0.39551374  0.04225883  0.81762440     0.00020
C2282       C  0.37551537  0.06858671  0.81719736    -0.11860
C2283       C  0.34871985  0.06959730  0.83701749     0.02250
C2284       C  0.34060714  0.04299094  0.85619038    -0.00070
C2285       C  0.35974166  0.01642263  0.85515792    -0.11800
C2286       C  0.38744987  0.01619790  0.83775100     0.02140
H2287       H  0.38147649  0.08896551  0.80240206     0.15120
H2288       H  0.35444977  0.99609744  0.87008084     0.15120
C2289       C  0.40784830  0.98977476  0.84437514     0.36770
C2290       C  0.33120117  0.09859957  0.83789895     0.36680
N2291       N  0.42348929  0.96855281  0.85120666    -0.43570
N2292       N  0.31784453  0.12229383  0.83848740    -0.43570
C2293       C  0.65450009  0.03590109  0.81540437     0.00020
C2294       C  0.66485541  0.06596708  0.82559313    -0.11860
C2295       C  0.68582784  0.06898549  0.85081670     0.02250
C2296       C  0.69815882  0.04143769  0.86474152    -0.00070
C2297       C  0.69302427  0.01208938  0.84970455    -0.11800
C2298       C  0.67049634  0.00889759  0.82588487     0.02140
H2299       H  0.65392562  0.08709215  0.81617043     0.15120
H2300       H  0.70396120  0.99085679  0.85891553     0.15120
C2301       C  0.66173040  0.97743364  0.81570392     0.36770
C2302       C  0.69151366  0.10015450  0.86356586     0.36680
N2303       N  0.65482881  0.95219471  0.80754453    -0.43570
N2304       N  0.69600418  0.12518228  0.87367393    -0.43570
C2305       C  0.38804526  0.75351952  0.98558196     0.00020
C2306       C  0.37547225  0.76862337  0.95866685    -0.11860
C2307       C  0.34358720  0.77794435  0.95745636     0.02250
C2308       C  0.32268028  0.77096827  0.98298330    -0.00070
C2309       C  0.33500024  0.75497998  0.00960011    -0.11800
C2310       C  0.36718222  0.74649577  0.01117309     0.02140
H2311       H  0.39112265  0.77478859  0.93902177     0.15120
H2312       H  0.31955600  0.74977326  0.02965735     0.15120
C2313       C  0.37816267  0.73044148  0.03930260     0.36770
C2314       C  0.33333755  0.79523774  0.92981121     0.36680
N2315       N  0.38694545  0.71749707  0.06183650    -0.43570
N2316       N  0.32593504  0.80928732  0.90742771    -0.43570
C2317       C  0.67041071  0.75385771  0.97918187     0.00020
C2318       C  0.68565646  0.77051166  0.95391951    -0.11860
C2319       C  0.71621008  0.78404226  0.95699811     0.02250
C2320       C  0.73341457  0.78009903  0.98520135    -0.00070
C2321       C  0.71902668  0.76257614  0.01009465    -0.11800
C2322       C  0.68802173  0.74977142  0.00749629     0.02140
H2323       H  0.67314628  0.77443277  0.93188513     0.15120
H2324       H  0.73239320  0.75834280  0.03156327     0.15120
C2325       C  0.67557214  0.73186687  0.03414028     0.36770
C2326       C  0.72980563  0.80166685  0.93061633     0.36680
N2327       N  0.66625205  0.71742563  0.05578259    -0.43570
N2328       N  0.74076701  0.81590286  0.90958064    -0.43570
C2329       C  0.51530040  0.74312991  0.12048426     0.00020
C2330       C  0.48785311  0.75343758  0.13655873    -0.11860
C2331       C  0.48900101  0.76511198  0.16781838     0.02250
C2332       C  0.51815749  0.76760496  0.18395262    -0.00070
C2333       C  0.54532219  0.75695682  0.16831779    -0.11800
C2334       C  0.54419124  0.74414511  0.13763028     0.02140
H2335       H  0.46525753  0.75307363  0.12443999     0.15120
H2336       H  0.56789286  0.75884716  0.18020665     0.15120
C2337       C  0.57363825  0.73313399  0.12462172     0.36770
C2338       C  0.45972056  0.77398900  0.18280613     0.36680
N2339       N  0.59771250  0.72442256  0.11514232    -0.43570
N2340       N  0.43594191  0.78085739  0.19445230    -0.43570
C2341       C  0.54032816  0.76701069  0.84071101     0.00020
C2342       C  0.51318944  0.78142234  0.82808267    -0.11860
C2343       C  0.51236855  0.79218054  0.79648275     0.02250
C2344       C  0.53879035  0.78819687  0.77645767    -0.00070
C2345       C  0.56538005  0.77258499  0.78851951    -0.11800
C2346       C  0.56653736  0.76234458  0.82027359     0.02140
H2347       H  0.49284685  0.78544140  0.84324952     0.15120
H2348       H  0.58540292  0.76846138  0.77296046     0.15120
C2349       C  0.59470708  0.74657995  0.83093485     0.36770
C2350       C  0.48384153  0.80657990  0.78487253     0.36680
N2351       N  0.61733339  0.73395378  0.83940205    -0.43570
N2352       N  0.46092192  0.81799387  0.77549829    -0.43570
C2353       C  0.56848427  0.86592183  0.86419534     0.00020
C2354       C  0.54625788  0.86404708  0.83971029    -0.11860
C2355       C  0.54231505  0.88938182  0.81886464     0.02250
C2356       C  0.56189905  0.91644939  0.82164707    -0.00070
C2357       C  0.58625936  0.91711505  0.84403497    -0.11800
C2358       C  0.58916044  0.89235480  0.86597085     0.02140
H2359       H  0.52959304  0.84431800  0.83914280     0.15120
H2360       H  0.60073545  0.93836920  0.84653531     0.15120
C2361       C  0.60975898  0.89706232  0.89279452     0.36770
C2362       C  0.51624161  0.88828159  0.79680458     0.36680
N2363       N  0.62578153  0.90163873  0.91451087    -0.43570
N2364       N  0.49517660  0.88759254  0.77935045    -0.43570
C2365       C  0.51358625  0.84047365  0.11615492     0.00020
C2366       C  0.48927375  0.86219643  0.11608344    -0.11860
C2367       C  0.49391877  0.89103531  0.13049970     0.02250
C2368       C  0.51987761  0.89531827  0.15140700    -0.00070
C2369       C  0.54101138  0.87054230  0.15628748    -0.11800
C2370       C  0.53924314  0.84392196  0.13723661     0.02140
H2371       H  0.46994785  0.85963795  0.09927718     0.15120
H2372       H  0.56103871  0.87359868  0.17205577     0.15120
C2373       C  0.56641295  0.82364859  0.13594361     0.36770
C2374       C  0.47384604  0.91608447  0.11931277     0.36680
N2375       N  0.58876507  0.80819760  0.13457036    -0.43570
N2376       N  0.45740912  0.93503779  0.10868884    -0.43570
C2377       C  0.40866320  0.86080023  0.00380844     0.00020
C2378       C  0.40014091  0.87500824  0.03247191    -0.11860
C2379       C  0.37644151  0.89796973  0.03313370     0.02250
C2380       C  0.36150452  0.90707014  0.00458704    -0.00070
C2381       C  0.36738748  0.88978643  0.97703552    -0.11800
C2382       C  0.39058384  0.86683679  0.97640350     0.02140
H2383       H  0.41339460  0.86980140  0.05382427     0.15120
H2384       H  0.35469567  0.89518708  0.95537259     0.15120
C2385       C  0.39595584  0.85072979  0.94685351     0.36770
C2386       C  0.36936879  0.91269227  0.06294585     0.36680
N2387       N  0.39974005  0.83815861  0.92291038    -0.43570
N2388       N  0.36373011  0.92377539  0.08725382    -0.43570
C2389       C  0.66525210  0.83823313  0.98825028     0.00020
C2390       C  0.67441434  0.84404397  0.01989909    -0.11860
C2391       C  0.69420928  0.86965899  0.02704224     0.02250
C2392       C  0.70674639  0.88798263  0.00201727    -0.00070
C2393       C  0.70338754  0.87759612  0.97064890    -0.11800
C2394       C  0.68155510  0.85398236  0.96335375     0.02140
H2395       H  0.66352009  0.83090321  0.03937236     0.15120
H2396       H  0.71471861  0.89080042  0.95139079     0.15120
C2397       C  0.67463998  0.84874977  0.93026163     0.36770
C2398       C  0.69833130  0.87853277  0.05976981     0.36680
N2399       N  0.66933012  0.84447790  0.90372290    -0.43570
N2400       N  0.70167528  0.88552358  0.08602480    -0.43570
C2401       C  0.82541802  0.77632873  0.98891865     0.00020
C2402       C  0.83626447  0.78626841  0.01873493    -0.11860
C2403       C  0.86718420  0.79859723  0.02286329     0.02250
C2404       C  0.88851301  0.80130015  0.99678185    -0.00070
C2405       C  0.87724536  0.79214363  0.96682588    -0.11800
C2406       C  0.84633315  0.77978842  0.96274654     0.02140
H2407       H  0.82024418  0.78476220  0.03890479     0.15120
H2408       H  0.89313968  0.79327750  0.94654126     0.15120
C2409       C  0.83699241  0.77106480  0.93117843     0.36770
C2410       C  0.87611156  0.80867973  0.05420202     0.36680
N2411       N  0.83068231  0.76446244  0.90538809    -0.43570
N2412       N  0.88303527  0.81678745  0.07939603    -0.43570
C2413       C  0.23021737  0.76973694  0.99101706     0.00020
C2414       C  0.21054846  0.76752791  0.96461863    -0.11860
C2415       C  0.18039530  0.78098351  0.96433255     0.02250
C2416       C  0.16752791  0.79493118  0.99226182    -0.00070
C2417       C  0.18712558  0.79628938  0.01918945    -0.11800
C2418       C  0.21830242  0.78440575  0.01857652     0.02140
H2419       H  0.21950030  0.75639419  0.94336583     0.15120
H2420       H  0.17807497  0.80648599  0.04085122     0.15120
C2421       C  0.23729801  0.78659651  0.04683550     0.36770
C2422       C  0.16360002  0.77955320  0.93457177     0.36680
N2423       N  0.25252177  0.78826642  0.06952710    -0.43570
N2424       N  0.15042181  0.77822741  0.91059689    -0.43570
C2425       C  0.04492621  0.80506947  0.85570627     0.00020
C2426       C  0.07020668  0.78876934  0.84152790    -0.11860
C2427       C  0.06988022  0.78003394  0.80943279     0.02250
C2428       C  0.04423269  0.78828557  0.78973959    -0.00070
C2429       C  0.01930482  0.80533486  0.80349387    -0.11800
C2430       C  0.01948648  0.81391240  0.83577568     0.02140
H2431       H  0.09001231  0.78131556  0.85591000     0.15120
H2432       H  0.99909063  0.81143574  0.78904526     0.15120
C2433       C  0.99299738  0.83160601  0.84742575     0.36770
C2434       C  0.09617920  0.76195001  0.79795518     0.36680
N2435       N  0.97154951  0.84595050  0.85609950    -0.43570
N2436       N  0.11764993  0.74728057  0.78990373    -0.43570
C2437       C  0.00821404  0.78918046  0.13637116     0.00020
C2438       C  0.03462903  0.77402317  0.14967107    -0.11860
C2439       C  0.03294980  0.75902076  0.17963541     0.02250
C2440       C  0.00446187  0.75883980  0.19732812    -0.00070
C2441       C  0.97815738  0.77417083  0.18420076    -0.11800
C2442       C  0.97980931  0.78926725  0.15432680     0.02140
H2443       H  0.05645422  0.77277372  0.13608725     0.15120
H2444       H  0.95642489  0.77531950  0.19788553     0.15120
C2445       C  0.95229178  0.80578609  0.14325053     0.36770
C2446       C  0.06099363  0.74425946  0.19193595     0.36680
N2447       N  0.93022715  0.81927376  0.13469194    -0.43570
N2448       N  0.08357384  0.73255668  0.20176914    -0.43570
C2449       C  0.86557015  0.25893656  0.97904969     0.00020
C2450       C  0.84907042  0.25487358  0.00803822    -0.11860
C2451       C  0.81796430  0.26618376  0.01227107     0.02250
C2452       C  0.80214541  0.28183657  0.98720562    -0.00070
C2453       C  0.81908421  0.28756722  0.95908211    -0.11800
C2454       C  0.84982643  0.27603216  0.95446604     0.02140
H2455       H  0.86065596  0.24332330  0.02779305     0.15120
H2456       H  0.80774000  0.30010424  0.93985558     0.15120
C2457       C  0.86425237  0.28284875  0.92395966     0.36770
C2458       C  0.80315868  0.26251278  0.04301581     0.36680
N2459       N  0.87562841  0.28859726  0.89949903    -0.43570
N2460       N  0.79135021  0.25967080  0.06772838    -0.43570
C2461       C  0.99101402  0.29246054  0.77768596     0.00020
C2462       C  0.01546174  0.27386448  0.79013458    -0.11860
C2463       C  0.01303884  0.25911082  0.82009896     0.02250
C2464       C  0.98693452  0.26523049  0.84035500    -0.00070
C2465       C  0.96303609  0.28504172  0.82826006    -0.11800
C2466       C  0.96479582  0.29843752  0.79758419     0.02140
H2467       H  0.03639730  0.27000394  0.77583296     0.15120
H2468       H  0.94295900  0.29093096  0.84309015     0.15120
C2469       C  0.93913545  0.31820784  0.78745885     0.36770
C2470       C  0.03753484  0.23719299  0.82849024     0.36680
N2471       N  0.91827426  0.33409131  0.78008532    -0.43570
N2472       N  0.05723376  0.21928487  0.83412737    -0.43570
C2473       C  0.14660141  0.25124866  0.97561031     0.00020
C2474       C  0.15974402  0.26520319  0.94782718    -0.11860
C2475       C  0.19182608  0.27555869  0.94623984     0.02250
C2476       C  0.21207097  0.27184581  0.97260399    -0.00070
C2477       C  0.19921634  0.25734092  0.00006003    -0.11800
C2478       C  0.16736304  0.24688480  0.00171918     0.02140
H2479       H  0.14464380  0.26914076  0.92749435     0.15120
H2480       H  0.21439982  0.25389068  0.02044610     0.15120
C2481       C  0.15704134  0.23124158  0.03063779     0.36770
C2482       C  0.20351281  0.28977352  0.91714914     0.36680
N2483       N  0.14891920  0.21864906  0.05384678    -0.43570
N2484       N  0.21285197  0.30126870  0.89383519    -0.43570
C2485       C  0.01725269  0.26127772  0.18619999     0.00020
C2486       C  0.99079250  0.26747217  0.16741112    -0.11860
C2487       C  0.98968119  0.25866639  0.13546410     0.02250
C2488       C  0.01645822  0.24500628  0.12066219    -0.00070
C2489       C  0.04294237  0.23848080  0.13966383    -0.11800
C2490       C  0.04337087  0.24608917  0.17217319     0.02140
H2491       H  0.97044550  0.27870917  0.17798214     0.15120
H2492       H  0.06375337  0.22823472  0.12891649     0.15120
C2493       C  0.07168761  0.23994491  0.19011444     0.36770
C2494       C  0.96057654  0.26445538  0.11869787     0.36680
N2495       N  0.09451614  0.23518260  0.20436825    -0.43570
N2496       N  0.93686200  0.26858686  0.10576189    -0.43570
C2497       C  0.87134729  0.50956489  0.25325587     0.00020
C2498       C  0.85948828  0.48555112  0.23350969    -0.11860
C2499       C  0.82755810  0.48466955  0.22403076     0.02250
C2500       C  0.80623926  0.50772063  0.23490733    -0.00070
C2501       C  0.81816478  0.53183127  0.25459616    -0.11800
C2502       C  0.85020901  0.53291859  0.26374972     0.02140
H2503       H  0.87562072  0.46815196  0.22418578     0.15120
H2504       H  0.80243167  0.55016805  0.26258277     0.15120
C2505       C  0.86078034  0.55806894  0.28424217     0.36770
C2506       C  0.81748187  0.45993158  0.20282465     0.36680
N2507       N  0.86921382  0.57815930  0.30079578    -0.43570
N2508       N  0.80972218  0.44012707  0.18562440    -0.43570
C2509       C  0.21324422  0.51845138  0.23222859     0.00020
C2510       C  0.20290304  0.49082696  0.24822652    -0.11860
C2511       C  0.17242291  0.48824066  0.26181622     0.02250
C2512       C  0.15117042  0.51390755  0.26002442    -0.00070
C2513       C  0.16208235  0.54196782  0.24496480    -0.11800
C2514       C  0.19222627  0.54411416  0.23050006     0.02140
H2515       H  0.21888391  0.47107625  0.25020936     0.15120
H2516       H  0.14621923  0.56177484  0.24256602     0.15120
C2517       C  0.20039685  0.57270848  0.21322939     0.36770
C2518       C  0.16378843  0.45881821  0.27749278     0.36680
N2519       N  0.20624398  0.59577989  0.19925189    -0.43570
N2520       N  0.15695608  0.43514313  0.28994085    -0.43570
C2521       C  0.00073556  0.71366247  0.24044425     0.00020
C2522       C  0.02459007  0.69926350  0.25841993    -0.11860
C2523       C  0.02118135  0.66827742  0.27057138     0.02250
C2524       C  0.99426036  0.64938417  0.26278182    -0.00070
C2525       C  0.97040155  0.66393476  0.24456441    -0.11800
C2526       C  0.97333098  0.69543403  0.23361092     0.02140
H2527       H  0.04628032  0.71235220  0.26304114     0.15120
H2528       H  0.94955478  0.65037017  0.23776009     0.15120
C2529       C  0.94775919  0.70811811  0.21510696     0.36770
C2530       C  0.04588537  0.65715135  0.29117645     0.36680
N2531       N  0.92697073  0.71765430  0.20019134    -0.43570
N2532       N  0.06582846  0.64919631  0.30806090    -0.43570
C2533       C  0.02452828  0.36949833  0.24702734     0.00020
C2534       C  0.99469890  0.35387143  0.24671486    -0.11860
C2535       C  0.99145562  0.32202199  0.23779736     0.02250
C2536       C  0.01825161  0.30485714  0.22844201    -0.00070
C2537       C  0.04804114  0.31999794  0.22894947    -0.11800
C2538       C  0.05155643  0.35159144  0.23871433     0.02140
H2539       H  0.97350630  0.36668247  0.25284272     0.15120
H2540       H  0.06884840  0.30672593  0.22243814     0.15120
C2541       C  0.08336840  0.36455105  0.24012038     0.36770
C2542       C  0.96021028  0.30766163  0.23778177     0.36680
N2543       N  0.10893403  0.37479248  0.24115990    -0.43570
N2544       N  0.93508799  0.29629784  0.23766221    -0.43570
C2545       C  0.06346779  0.35726720  0.09627120     0.00020
C2546       C  0.06355499  0.38890820  0.08630085    -0.11860
C2547       C  0.06731583  0.41287328  0.10819461     0.02250
C2548       C  0.06901778  0.40494989  0.14064943    -0.00070
C2549       C  0.07486455  0.37362574  0.14979974    -0.11800
C2550       C  0.07316173  0.34961552  0.12719564     0.02140
H2551       H  0.05852931  0.39487060  0.06174881     0.15120
H2552       H  0.07835353  0.36766891  0.17452343     0.15120
C2553       C  0.08193414  0.31799654  0.13582072     0.36770
C2554       C  0.06677833  0.44535300  0.09718956     0.36680
N2555       N  0.09087521  0.29308654  0.14234985    -0.43570
N2556       N  0.06670110  0.47129945  0.08818135    -0.43570
C2557       C  0.99027356  0.69195306  0.11690904     0.00020
C2558       C  0.01500449  0.68842278  0.13852677    -0.11860
C2559       C  0.01343892  0.66490883  0.16169158     0.02250
C2560       C  0.98773319  0.64322135  0.16190763    -0.00070
C2561       C  0.96071293  0.65000854  0.14401430    -0.11800
C2562       C  0.96149755  0.67510664  0.12203121     0.02140
H2563       H  0.03635587  0.70290126  0.13614881     0.15120
H2564       H  0.94004654  0.63447853  0.14544900     0.15120
C2565       C  0.93328560  0.68187435  0.10418968     0.36770
C2566       C  0.03897644  0.66285323  0.18420139     0.36680
N2567       N  0.91035718  0.68755681  0.09045217    -0.43570
N2568       N  0.05933100  0.66183571  0.20243479    -0.43570
C2569       C  0.28414155  0.51179251  0.84305104     0.00020
C2570       C  0.28218541  0.48329999  0.82608423    -0.11860
C2571       C  0.27116664  0.48239154  0.79479556     0.02250
C2572       C  0.26171723  0.51046630  0.77925182    -0.00070
C2573       C  0.26485000  0.53917046  0.79546185    -0.11800
C2574       C  0.27599120  0.54016108  0.82689807     0.02140
H2575       H  0.28822334  0.46123044  0.83774696     0.15120
H2576       H  0.25847214  0.56096136  0.78347219     0.15120
C2577       C  0.27642124  0.57045414  0.84238900     0.36770
C2578       C  0.26964046  0.45208633  0.77933593     0.36680
N2579       N  0.27637893  0.59491182  0.85448740    -0.43570
N2580       N  0.26863315  0.42770469  0.76707590    -0.43570
C2581       C  0.27822922  0.52216517  0.12296907     0.00020
C2582       C  0.27003343  0.49333698  0.13828715    -0.11860
C2583       C  0.25925497  0.49247461  0.16999961     0.02250
C2584       C  0.25593591  0.52080276  0.18705257    -0.00070
C2585       C  0.26492723  0.54935319  0.17224064    -0.11800
C2586       C  0.27636366  0.55033942  0.14100074     0.02140
H2587       H  0.27116504  0.47138631  0.12527131     0.15120
H2588       H  0.26385117  0.57110365  0.18557199     0.15120
C2589       C  0.28674851  0.58079098  0.12874770     0.36770
C2590       C  0.25195642  0.46221025  0.18455964     0.36680
N2591       N  0.29523821  0.60528057  0.11927473    -0.43570
N2592       N  0.24625685  0.43782740  0.19611813    -0.43570
C2593       C  0.28118256  0.65776972  0.99384180     0.00020
C2594       C  0.28648654  0.67440333  0.96509302    -0.11860
C2595       C  0.28108978  0.70712411  0.96243922     0.02250
C2596       C  0.27007254  0.72419003  0.98883593    -0.00070
C2597       C  0.26500048  0.70795665  0.01750859    -0.11800
C2598       C  0.27071763  0.67544400  0.02046251     0.02140
H2599       H  0.29418119  0.66173935  0.94425678     0.15120
H2600       H  0.25670363  0.72090066  0.03794395     0.15120
C2601       C  0.26472008  0.66128736  0.05123699     0.36770
C2602       C  0.28580862  0.72236506  0.93198744     0.36680
N2603       N  0.25944212  0.65030691  0.07598079    -0.43570
N2604       N  0.28958271  0.73439427  0.90746535    -0.43570
C2605       C  0.27933323  0.37844247  0.96763185     0.00020
C2606       C  0.29935410  0.35507962  0.95537475    -0.11860
C2607       C  0.28613657  0.32444939  0.94991042     0.02250
C2608       C  0.25772748  0.31498062  0.96628911    -0.00070
C2609       C  0.23821868  0.33986499  0.97568176    -0.11800
C2610       C  0.24689865  0.37049647  0.96561066     0.02140
H2611       H  0.32215224  0.36193112  0.94532781     0.15120
H2612       H  0.21440217  0.33507211  0.98421905     0.15120
C2613       C  0.23641261  0.37630629  0.93349356     0.36770
C2614       C  0.29261993  0.31054297  0.91952843     0.36680
N2615       N  0.23162012  0.38020234  0.90675128    -0.43570
N2616       N  0.29692336  0.30004219  0.89465526    -0.43570
C2617       C  0.14487275  0.52109600  0.16807349     0.00020
C2618       C  0.14602902  0.55013612  0.15141365    -0.11860
C2619       C  0.16564816  0.55462487  0.12520922     0.02250
C2620       C  0.18591020  0.53029869  0.11650097    -0.00070
C2621       C  0.18751090  0.50261263  0.13504765    -0.11800
C2622       C  0.16706849  0.49770305  0.16071511     0.02140
H2623       H  0.12961944  0.56850316  0.15685449     0.15120
H2624       H  0.20306968  0.48374238  0.12790070     0.15120
C2625       C  0.16838604  0.46799613  0.17779460     0.36770
C2626       C  0.16100146  0.58206959  0.10508419     0.36680
N2627       N  0.16942881  0.44414789  0.19143504    -0.43570
N2628       N  0.15681773  0.60370452  0.08867867    -0.43570
C2629       C  0.17041598  0.39763462  0.96939473     0.00020
C2630       C  0.16506054  0.38894645  0.00126780    -0.11860
C2631       C  0.15126652  0.35988523  0.00938196     0.02250
C2632       C  0.14188599  0.33943231  0.98509343    -0.00070
C2633       C  0.15197495  0.34591158  0.95376218    -0.11800
C2634       C  0.16370482  0.37577290  0.94538749     0.02140
H2635       H  0.16985876  0.40568213  0.01987874     0.15120
H2636       H  0.14462539  0.33013867  0.93491922     0.15120
C2637       C  0.16453728  0.38417465  0.91215070     0.36770
C2638       C  0.14326899  0.35362070  0.04221539     0.36680
N2639       N  0.16515532  0.38972319  0.88522047    -0.43570
N2640       N  0.13702743  0.34870871  0.06857659    -0.43570
C2641       C  0.14509861  0.69816946  0.99820665     0.00020
C2642       C  0.13452443  0.67246325  0.98067859    -0.11860
C2643       C  0.14555156  0.64254901  0.98705542     0.02250
C2644       C  0.17170757  0.63859965  0.00770676    -0.00070
C2645       C  0.18159006  0.66411522  0.02635306    -0.11800
C2646       C  0.16725021  0.69360189  0.02280107     0.02140
H2647       H  0.11534431  0.67523591  0.96383956     0.15120
H2648       H  0.20015856  0.66104261  0.04363994     0.15120
C2649       C  0.17464181  0.71799256  0.04534838     0.36770
C2650       C  0.12780581  0.61650001  0.97347143     0.36680
N2651       N  0.18016200  0.73684117  0.06433271    -0.43570
N2652       N  0.11248655  0.59644228  0.96265721    -0.43570
C2653       C  0.15584359  0.52890825  0.71264671     0.00020
C2654       C  0.16320105  0.50111248  0.72953315    -0.11860
C2655       C  0.19347686  0.49611866  0.74237103     0.02250
C2656       C  0.21874661  0.51779529  0.73603295    -0.00070
C2657       C  0.21173007  0.54531482  0.71836990    -0.11800
C2658       C  0.18075412  0.55126503  0.70731391     0.02140
H2659       H  0.14455442  0.48383273  0.73458646     0.15120
H2660       H  0.23062809  0.56226513  0.71315811     0.15120
C2661       C  0.17533810  0.58039642  0.69023985     0.36770
C2662       C  0.19734865  0.46822684  0.76176732     0.36680
N2663       N  0.17102664  0.60382482  0.67661822    -0.43570
N2664       N  0.19874056  0.44575121  0.77755180    -0.43570
C2665       C  0.99164474  0.33641955  0.73359098     0.00020
C2666       C  0.96401161  0.35009037  0.72138570    -0.11860
C2667       C  0.96351503  0.38209077  0.71167979     0.02250
C2668       C  0.99143205  0.40098793  0.71277661    -0.00070
C2669       C  0.01943254  0.38669105  0.72356198    -0.11800
C2670       C  0.01965069  0.35501791  0.73411087     0.02140
H2671       H  0.94258791  0.33577476  0.71973598     0.15120
H2672       H  0.04105781  0.40076109  0.72527180     0.15120
C2673       C  0.04902986  0.34197604  0.74523596     0.36770
C2674       C  0.93410290  0.39478175  0.70038858     0.36680
N2675       N  0.07258417  0.33144134  0.75406584    -0.43570
N2676       N  0.91038865  0.40468060  0.69127486    -0.43570
C2677       C  0.03638798  0.68002112  0.72819101     0.00020
C2678       C  0.06405695  0.69785737  0.72138804    -0.11860
C2679       C  0.06679172  0.72998164  0.72971129     0.02250
C2680       C  0.04207968  0.74477148  0.74658895    -0.00070
C2681       C  0.01460979  0.72700919  0.75360108    -0.11800
C2682       C  0.01115266  0.69542017  0.74395141     0.02140
H2683       H  0.08367075  0.68668350  0.70940636     0.15120
H2684       H  0.99539545  0.73814297  0.76627416     0.15120
C2685       C  0.98188874  0.67919391  0.75230734     0.36770
C2686       C  0.09545003  0.74698648  0.72093393     0.36680
N2687       N  0.95829586  0.66649866  0.75909612    -0.43570
N2688       N  0.11859748  0.76029654  0.71375295    -0.43570
C2689       C  0.87534195  0.54386360  0.72063190     0.00020
C2690       C  0.86376609  0.57305613  0.73105374    -0.11860
C2691       C  0.83227941  0.57620271  0.74166688     0.02250
C2692       C  0.81140216  0.54970403  0.74237338    -0.00070
C2693       C  0.82303469  0.52052551  0.73223017    -0.11800
C2694       C  0.85403691  0.51759584  0.72055422     0.02140
H2695       H  0.87970979  0.59339087  0.73207601     0.15120
H2696       H  0.80747313  0.49988539  0.73284185     0.15120
C2697       C  0.86287957  0.48740677  0.70782457     0.36770
C2698       C  0.82265052  0.60697428  0.75200147     0.36680
N2699       N  0.86965571  0.46322220  0.69735216    -0.43570
N2700       N  0.81637816  0.63219866  0.76010423    -0.43570
C2701       C  0.18399316  0.50511768  0.85399274     0.00020
C2702       C  0.19229656  0.53088521  0.83422102    -0.11860
C2703       C  0.17233948  0.54028272  0.80977645     0.02250
C2704       C  0.14420009  0.52294942  0.80472019    -0.00070
C2705       C  0.13746091  0.49584011  0.82314209    -0.11800
C2706       C  0.15642350  0.48740328  0.84834297     0.02140
H2707       H  0.21255376  0.54566147  0.84009749     0.15120
H2708       H  0.11536968  0.48322723  0.82028194     0.15120
C2709       C  0.14357494  0.46526059  0.87153756     0.36770
C2710       C  0.18032005  0.56851397  0.79175644     0.36680
N2711       N  0.13225753  0.44867549  0.89055558    -0.43570
N2712       N  0.18674108  0.59127821  0.77751374    -0.43570
C2713       C  0.97573290  0.36523505  0.86398483     0.00020
C2714       C  0.95092590  0.38686013  0.86301458    -0.11860
C2715       C  0.95192716  0.41199006  0.84118900     0.02250
C2716       C  0.97788683  0.41485928  0.82009808    -0.00070
C2717       C  0.00010523  0.39074679  0.81834312    -0.11800
C2718       C  0.99939308  0.36606848  0.84024637     0.02140
H2719       H  0.93266018  0.38601192  0.88121659     0.15120
H2720       H  0.01953020  0.39257687  0.80141136     0.15120
C2721       C  0.02493798  0.34368825  0.83970908     0.36770
C2722       C  0.92812987  0.43607323  0.84326948     0.36680
N2723       N  0.04567673  0.32610015  0.83937076    -0.43570
N2724       N  0.90890741  0.45521102  0.84512213    -0.43570
C2725       C  0.06873872  0.65741293  0.82163381     0.00020
C2726       C  0.04632095  0.68131511  0.82009527    -0.11860
C2727       C  0.04549066  0.70484597  0.84274565     0.02250
C2728       C  0.06815250  0.70518729  0.86720425    -0.00070
C2729       C  0.09303767  0.68344675  0.86667101    -0.11800
C2730       C  0.09319587  0.65910193  0.84419751     0.02140
H2731       H  0.02707014  0.67940065  0.80336137     0.15120
H2732       H  0.11009651  0.68323989  0.88583118     0.15120
C2733       C  0.11592930  0.63408340  0.84726306     0.36770
C2734       C  0.01858890  0.72559491  0.84265404     0.36680
N2735       N  0.13398357  0.61388880  0.84983331    -0.43570
N2736       N  0.99660628  0.74161583  0.84250438    -0.43570
C2737       C  0.73664435  0.38831091  0.99143982     0.00020
C2738       C  0.73850143  0.37236385  0.96229678    -0.11860
C2739       C  0.74861732  0.34068280  0.96054732     0.02250
C2740       C  0.75760558  0.32398349  0.98827879    -0.00070
C2741       C  0.75575858  0.33960748  0.01728560    -0.11800
C2742       C  0.74545062  0.37101571  0.01928568     0.02140
H2743       H  0.73258711  0.38484085  0.94058936     0.15120
H2744       H  0.76246475  0.32703862  0.03872581     0.15120
C2745       C  0.74586916  0.38483055  0.05048645     0.36770
C2746       C  0.75009318  0.32622429  0.92978656     0.36680
N2747       N  0.74664679  0.39574894  0.07554497    -0.43570
N2748       N  0.75136537  0.31517536  0.90482106    -0.43570
C2749       C  0.75473234  0.66928439  0.98683060     0.00020
C2750       C  0.75258090  0.68802681  0.95926135    -0.11860
C2751       C  0.76574130  0.71876781  0.95750094     0.02250
C2752       C  0.78113239  0.73228606  0.98405855    -0.00070
C2753       C  0.78309551  0.71372972  0.01183458    -0.11800
C2754       C  0.77034443  0.68263541  0.01339837     0.02140
H2755       H  0.74176922  0.67798569  0.93826688     0.15120
H2756       H  0.79441051  0.72371241  0.03257606     0.15120
C2757       C  0.77527734  0.66445226  0.04203552     0.36770
C2758       C  0.76460390  0.73472101  0.92720476     0.36680
N2759       N  0.77940137  0.64992713  0.06501134    -0.43570
N2760       N  0.76335622  0.74617209  0.90221615    -0.43570
C2761       C  0.73806125  0.51221884  0.12904128     0.00020
C2762       C  0.75299132  0.53841985  0.14348846    -0.11860
C2763       C  0.76483616  0.53660775  0.17462348     0.02250
C2764       C  0.76145427  0.50836542  0.19252917    -0.00070
C2765       C  0.74559796  0.48254645  0.17860775    -0.11800
C2766       C  0.73383204  0.48423315  0.14750999     0.02140
H2767       H  0.75693812  0.56005111  0.12991381     0.15120
H2768       H  0.74231755  0.46085776  0.19224840     0.15120
C2769       C  0.71709154  0.45688233  0.13546386     0.36770
C2770       C  0.78030113  0.56419634  0.18771003     0.36680
N2771       N  0.70356937  0.43494692  0.12594855    -0.43570
N2772       N  0.79254137  0.58642424  0.19816838    -0.43570
C2773       C  0.74585591  0.54671007  0.84942723     0.00020
C2774       C  0.74426640  0.57550957  0.83264044    -0.11860
C2775       C  0.75398954  0.57797532  0.80070703     0.02250
C2776       C  0.76697914  0.55150872  0.78516872    -0.00070
C2777       C  0.76752869  0.52254726  0.80159884    -0.11800
C2778       C  0.75653043  0.51972760  0.83298149     0.02140
H2779       H  0.73618099  0.59642266  0.84479395     0.15120
H2780       H  0.77623897  0.50179676  0.78960308     0.15120
C2781       C  0.75749155  0.48884009  0.84780355     0.36770
C2782       C  0.75097884  0.60824902  0.78508751     0.36680
N2783       N  0.75797904  0.46385679  0.85923709    -0.43570
N2784       N  0.74779419  0.63275318  0.77313523    -0.43570
C2785       C  0.87154367  0.55680296  0.88511816     0.00020
C2786       C  0.90127157  0.54631467  0.89495638    -0.11860
C2787       C  0.92312216  0.53542725  0.87312653     0.02250
C2788       C  0.91568135  0.53601740  0.84049362    -0.00070
C2789       C  0.88758480  0.55029947  0.83037921    -0.11800
C2790       C  0.86572278  0.56128101  0.85262859     0.02140
H2791       H  0.90603269  0.54340799  0.92010072     0.15120
H2792       H  0.88278069  0.55291291  0.80524139     0.15120
C2793       C  0.83787558  0.57724717  0.84185021     0.36770
C2794       C  0.95167358  0.52136175  0.88532332     0.36680
N2795       N  0.81615354  0.59126187  0.83339000    -0.43570
N2796       N  0.97450099  0.51013123  0.89515803    -0.43570
C2797       C  0.83556051  0.50268916  0.11225918     0.00020
C2798       C  0.83784523  0.52832611  0.13322147    -0.11860
C2799       C  0.86549204  0.53431004  0.15041443     0.02250
C2800       C  0.89193037  0.51482973  0.14589354    -0.00070
C2801       C  0.88905723  0.48877255  0.12524844    -0.11800
C2802       C  0.86143646  0.48257757  0.10862110     0.02140
H2803       H  0.81845726  0.54465197  0.13506938     0.15120
H2804       H  0.90871501  0.47303313  0.12133814     0.15120
C2805       C  0.86172921  0.45723418  0.08580527     0.36770
C2806       C  0.86608264  0.56086946  0.17169283     0.36680
N2807       N  0.86235742  0.43707996  0.06743056    -0.43570
N2808       N  0.86662422  0.58208008  0.18885308    -0.43570
C2809       C  0.87807280  0.35218286  0.98776624     0.00020
C2810       C  0.86543138  0.36422980  0.95974534    -0.11860
C2811       C  0.83907325  0.38353177  0.96048570     0.02250
C2812       C  0.82590993  0.39247520  0.99016328    -0.00070
C2813       C  0.83569812  0.37651608  0.01762232    -0.11800
C2814       C  0.86119184  0.35582706  0.01647060     0.02140
H2815       H  0.87706378  0.35981644  0.93723047     0.15120
H2816       H  0.82442749  0.38118608  0.04022994     0.15120
C2817       C  0.86864489  0.33790315  0.04465313     0.36770
C2818       C  0.82714804  0.39398170  0.93017669     0.36680
N2819       N  0.87346543  0.32312140  0.06730317    -0.43570
N2820       N  0.81806553  0.40136726  0.90538473    -0.43570
C2821       C  0.86209783  0.64299507  0.98644314     0.00020
C2822       C  0.88781377  0.63865613  0.00712416    -0.11860
C2823       C  0.90928993  0.66265550  0.01288321     0.02250
C2824       C  0.90489882  0.69226857  0.99862286    -0.00070
C2825       C  0.87998096  0.69698395  0.97727273    -0.11800
C2826       C  0.85873877  0.67225134  0.97056249     0.02140
H2827       H  0.89219192  0.61580141  0.01805501     0.15120
H2828       H  0.87867178  0.71910511  0.96415131     0.15120
C2829       C  0.83611702  0.67661838  0.94546036     0.36770
C2830       C  0.93792115  0.65491967  0.02994487     0.36680
N2831       N  0.81880841  0.67983041  0.92452550    -0.43570
N2832       N  0.96103415  0.64845144  0.04299315    -0.43570
C2833       C  0.25451091  0.50760382  0.62048622     0.00020
C2834       C  0.28549362  0.51359193  0.63076807    -0.11860
C2835       C  0.29384282  0.51105148  0.66282432     0.02250
C2836       C  0.27038580  0.50456513  0.68645697    -0.00070
C2837       C  0.24055696  0.49377229  0.67490783    -0.11800
C2838       C  0.23209925  0.49648442  0.64271695     0.02140
H2839       H  0.30370803  0.51902610  0.61326832     0.15120
H2840       H  0.22372893  0.48222031  0.69054437     0.15120
C2841       C  0.20060766  0.48715695  0.63302582     0.36770
C2842       C  0.32717952  0.50995038  0.66948033     0.36680
N2843       N  0.17528164  0.47979460  0.62534254    -0.43570
N2844       N  0.35371857  0.50731185  0.67545675    -0.43570
C2845       C  0.24026120  0.53325041  0.34162567     0.00020
C2846       C  0.24171395  0.56009602  0.32158392    -0.11860
C2847       C  0.25218502  0.55798945  0.28994677     0.02250
C2848       C  0.26216317  0.52879938  0.27783022    -0.00070
C2849       C  0.25974536  0.50186854  0.29723526    -0.11800
C2850       C  0.24857945  0.50357907  0.32848889     0.02140
H2851       H  0.23523070  0.58297241  0.33080335     0.15120
H2852       H  0.26580557  0.47907814  0.28767156     0.15120
C2853       C  0.24672902  0.47418865  0.34619010     0.36770
C2854       C  0.25290458  0.58617151  0.27035705     0.36680
N2855       N  0.24530986  0.45033257  0.35986067    -0.43570
N2856       N  0.25383485  0.60893346  0.25488506    -0.43570
C2857       C  0.24939692  0.66803729  0.47814664     0.00020
C2858       C  0.24974015  0.68510665  0.50667993    -0.11860
C2859       C  0.26121334  0.71665492  0.50788283     0.02250
C2860       C  0.27481659  0.73142113  0.48061672    -0.00070
C2861       C  0.27434740  0.71462006  0.45218558    -0.11800
C2862       C  0.26067768  0.68414341  0.45029315     0.02140
H2863       H  0.24084022  0.67384621  0.52822144     0.15120
H2864       H  0.28375557  0.72594981  0.43087812     0.15120
C2865       C  0.25905253  0.67037962  0.41910457     0.36770
C2866       C  0.25823198  0.73330873  0.53739028     0.36680
N2867       N  0.25792467  0.65957894  0.39400210    -0.43570
N2868       N  0.25534417  0.74639486  0.56119239    -0.43570
C2869       C  0.24190415  0.38801464  0.48970993     0.00020
C2870       C  0.24062691  0.37315059  0.45999663    -0.11860
C2871       C  0.24991786  0.34151852  0.45617834     0.02250
C2872       C  0.26189855  0.32406141  0.48220097    -0.00070
C2873       C  0.26290162  0.33871399  0.51185096    -0.11800
C2874       C  0.25200762  0.36961541  0.51610044     0.02140
H2875       H  0.23316211  0.38650955  0.43933659     0.15120
H2876       H  0.27101880  0.32542202  0.53226406     0.15120
C2877       C  0.25076090  0.38126750  0.54817357     0.36770
C2878       C  0.24682516  0.32791352  0.42513568     0.36680
N2879       N  0.24963814  0.39044160  0.57392526    -0.43570
N2880       N  0.24348009  0.31781841  0.39994425    -0.43570
C2881       C  0.52642104  0.67619091  0.75656602     0.00020
C2882       C  0.55467046  0.68805398  0.74247207    -0.11860
C2883       C  0.55691651  0.71846896  0.72890260     0.02250
C2884       C  0.53118631  0.73928088  0.73065691    -0.00070
C2885       C  0.50339192  0.72837342  0.74632262    -0.11800
C2886       C  0.50070006  0.69720175  0.75886792     0.02140
H2887       H  0.57505113  0.67289500  0.74047454     0.15120
H2888       H  0.48361612  0.74426730  0.74861770     0.15120
C2889       C  0.47148346  0.68768612  0.77431395     0.36770
C2890       C  0.58618345  0.72731286  0.71316417     0.36680
N2891       N  0.44800508  0.68024103  0.78677911    -0.43570
N2892       N  0.60996640  0.73326330  0.70053433    -0.43570
C2893       C  0.65668935  0.54616321  0.76269999     0.00020
C2894       C  0.67319470  0.51756233  0.75951074    -0.11860
C2895       C  0.70448066  0.51703254  0.74753470     0.02250
C2896       C  0.71973229  0.54531280  0.73716022    -0.00070
C2897       C  0.70338812  0.57367069  0.74006493    -0.11800
C2898       C  0.67305233  0.57466376  0.75376969     0.02140
H2899       H  0.66155390  0.49538275  0.76602168     0.15120
H2900       H  0.71480346  0.59550447  0.73224779     0.15120
C2901       C  0.65957374  0.60561800  0.75760107     0.36770
C2902       C  0.72038992  0.48712897  0.74606214     0.36680
N2903       N  0.64897469  0.63052917  0.76048890    -0.43570
N2904       N  0.73307502  0.46307399  0.74509202    -0.43570
C2905       C  0.37606397  0.51803751  0.75218423     0.00020
C2906       C  0.35794465  0.54495222  0.74518586    -0.11860
C2907       C  0.32560988  0.54220167  0.73676513     0.02250
C2908       C  0.31080087  0.51201933  0.73398837    -0.00070
C2909       C  0.32855226  0.48535354  0.74227396    -0.11800
C2910       C  0.36016328  0.48826437  0.75256048     0.02140
H2911       H  0.36938998  0.56809546  0.74473016     0.15120
H2912       H  0.31788653  0.46204237  0.74033336     0.15120
C2913       C  0.37522622  0.46051248  0.76515854     0.36770
C2914       C  0.30857040  0.57054429  0.72899254     0.36680
N2915       N  0.38681180  0.43848472  0.77637752    -0.43570
N2916       N  0.29484598  0.59324596  0.72275644    -0.43570
C2917       C  0.51206468  0.33262153  0.73377656     0.00020
C2918       C  0.48317169  0.34810372  0.73079518    -0.11860
C2919       C  0.47935971  0.37932716  0.74095862     0.02250
C2920       C  0.50516695  0.39657524  0.75447612    -0.00070
C2921       C  0.53415549  0.38076667  0.75763088    -0.11800
C2922       C  0.53778522  0.34936347  0.74745995     0.02140
H2923       H  0.46297260  0.33543023  0.72115383     0.15120
H2924       H  0.55455593  0.39325680  0.76718173     0.15120
C2925       C  0.56841025  0.33523583  0.75121495     0.36770
C2926       C  0.44840866  0.39256342  0.73650435     0.36680
N2927       N  0.59327125  0.32467157  0.75486454    -0.43570
N2928       N  0.42341303  0.40252966  0.73222118    -0.43570
C2929       C  0.41366775  0.51197822  0.63172750     0.00020
C2930       C  0.41352058  0.48343571  0.61491212    -0.11860
C2931       C  0.39187706  0.47852390  0.59044322     0.02250
C2932       C  0.37000128  0.50223391  0.58358823    -0.00070
C2933       C  0.36960760  0.53014315  0.60103230    -0.11800
C2934       C  0.39140986  0.53545635  0.62474483     0.02140
H2935       H  0.43134746  0.46587134  0.61973018     0.15120
H2936       H  0.35250110  0.54825996  0.59558089     0.15120
C2937       C  0.38884897  0.56420752  0.64286003     0.36770
C2938       C  0.39417276  0.45054646  0.57129869     0.36680
N2939       N  0.38603768  0.58702932  0.65748381    -0.43570
N2940       N  0.39645829  0.42823426  0.55582167    -0.43570
C2941       C  0.79006492  0.66010428  0.49007222     0.00020
C2942       C  0.77884631  0.67373526  0.51841560    -0.11860
C2943       C  0.76837758  0.70502373  0.51950260     0.02250
C2944       C  0.77046808  0.72455474  0.49235154    -0.00070
C2945       C  0.78332375  0.71190370  0.46442511    -0.11800
C2946       C  0.79234928  0.67989842  0.46281835     0.02140
H2947       H  0.77675279  0.65949947  0.53985957     0.15120
H2948       H  0.78608222  0.72702655  0.44367732     0.15120
C2949       C  0.80406853  0.66833612  0.43299132     0.36770
C2950       C  0.75566889  0.71655185  0.54900967     0.36680
N2951       N  0.81338996  0.65937527  0.40888966    -0.43570
N2952       N  0.74554262  0.72559875  0.57275258    -0.43570
C2953       C  0.78727883  0.53792815  0.62993454     0.00020
C2954       C  0.78216412  0.56791542  0.64350344    -0.11860
C2955       C  0.77084792  0.57117701  0.67473295     0.02250
C2956       C  0.76385939  0.54421624  0.69355858    -0.00070
C2957       C  0.76975559  0.51432596  0.68065865    -0.11800
C2958       C  0.78182780  0.51093019  0.64963683     0.02140
H2959       H  0.78616782  0.58919583  0.62941133     0.15120
H2960       H  0.76530786  0.49337559  0.69506376     0.15120
C2961       C  0.78764041  0.47923664  0.63886955     0.36770
C2962       C  0.76629411  0.60260583  0.68681269     0.36680
N2963       N  0.79207068  0.45362679  0.63066305    -0.43570
N2964       N  0.76272869  0.62789680  0.69633197    -0.43570
C2965       C  0.77750260  0.38051675  0.48882890     0.00020
C2966       C  0.75739288  0.37026442  0.51372205    -0.11860
C2967       C  0.74464641  0.33920095  0.51510022     0.02250
C2968       C  0.75291823  0.31668158  0.49185162    -0.00070
C2969       C  0.77204538  0.32742414  0.46623540    -0.11800
C2970       C  0.78417314  0.35871423  0.46454600     0.02140
H2971       H  0.75047925  0.38708189  0.53166268     0.15120
H2972       H  0.77804373  0.31102009  0.44761205     0.15120
C2973       C  0.80395027  0.36771808  0.43784901     0.36770
C2974       C  0.72354419  0.33139017  0.54110123     0.36680
N2975       N  0.81984662  0.37488816  0.41644106    -0.43570
N2976       N  0.70658184  0.32602994  0.56219340    -0.43570
C2977       C  0.77602906  0.50351061  0.34995529     0.00020
C2978       C  0.77877054  0.47571218  0.33200963    -0.11860
C2979       C  0.77017422  0.47502252  0.29966007     0.02250
C2980       C  0.75744752  0.50210914  0.28482061    -0.00070
C2981       C  0.75416769  0.52959031  0.30279585    -0.11800
C2982       C  0.76367326  0.53072377  0.33466265     0.02140
H2983       H  0.78746470  0.45442478  0.34332284     0.15120
H2984       H  0.74448504  0.55054217  0.29169048     0.15120
C2985       C  0.75875960  0.55989106  0.35143286     0.36770
C2986       C  0.77405940  0.44613120  0.28222928     0.36680
N2987       N  0.75473327  0.58335120  0.36469075    -0.43570
N2988       N  0.77715561  0.42301521  0.26813243    -0.43570
C2989       C  0.70065791  0.55960043  0.62644830     0.00020
C2990       C  0.68995207  0.58995551  0.63408498    -0.11860
C2991       C  0.66850793  0.59373400  0.65929183     0.02250
C2992       C  0.65827301  0.56684781  0.67669392    -0.00070
C2993       C  0.67458575  0.53856079  0.67340142    -0.11800
C2994       C  0.69465449  0.53422728  0.64786552     0.02140
H2995       H  0.69554867  0.60989957  0.61857349     0.15120
H2996       H  0.66775311  0.51817401  0.68790394     0.15120
C2997       C  0.70507301  0.50232062  0.64258666     0.36770
C2998       C  0.65573570  0.62455073  0.66526467     0.36680
N2999       N  0.71245999  0.47630734  0.63934362    -0.43570
N3000       N  0.64616081  0.64949235  0.67043473    -0.43570
C3001       C  0.72620014  0.76672648  0.49163594     0.00020
C3002       C  0.71151263  0.77937381  0.51853957    -0.11860
C3003       C  0.68092484  0.79194374  0.51728159     0.02250
C3004       C  0.66351041  0.79170568  0.48849875    -0.00070
C3005       C  0.67846133  0.77928351  0.46143973    -0.11800
C3006       C  0.70928987  0.76691004  0.46279114     0.02140
H3007       H  0.72453345  0.78031976  0.54061692     0.15120
H3008       H  0.66570708  0.77828934  0.43921049     0.15120
C3009       C  0.72317140  0.75513904  0.43399304     0.36770
C3010       C  0.66849403  0.80531267  0.54608601     0.36680
N3011       N  0.73393589  0.74580261  0.41065423    -0.43570
N3012       N  0.65868751  0.81593503  0.56928326    -0.43570
C3013       C  0.53399972  0.78114827  0.68481572     0.00020
C3014       C  0.50576528  0.77664463  0.66781990    -0.11860
C3015       C  0.50351262  0.78527019  0.63551425     0.02250
C3016       C  0.53036935  0.79771624  0.61894611    -0.00070
C3017       C  0.55842712  0.80265040  0.63626878    -0.11800
C3018       C  0.56033124  0.79500250  0.66870846     0.02140
H3019       H  0.48518193  0.76666749  0.68000364     0.15120
H3020       H  0.57930512  0.81222079  0.62427541     0.15120
C3021       C  0.58986259  0.80143261  0.68467302     0.36770
C3022       C  0.47368666  0.77950169  0.61981579     0.36680
N3023       N  0.61367753  0.80679742  0.69716342    -0.43570
N3024       N  0.44973031  0.77472559  0.60736595    -0.43570
C3025       C  0.32070795  0.77362378  0.47608477     0.00020
C3026       C  0.33213269  0.78670214  0.44725787    -0.11860
C3027       C  0.36359192  0.79807677  0.44398601     0.02250
C3028       C  0.38457152  0.79705247  0.47004026    -0.00070
C3029       C  0.37317312  0.78364989  0.49866965    -0.11800
C3030       C  0.34205493  0.77155192  0.50170653     0.02140
H3031       H  0.31620327  0.78831323  0.42722645     0.15120
H3032       H  0.38920863  0.78111960  0.51853398     0.15120
C3033       C  0.33326864  0.75676934  0.53145778     0.36770
C3034       C  0.37355592  0.81112309  0.41374816     0.36680
N3035       N  0.32757447  0.74490666  0.55570535    -0.43570
N3036       N  0.38149052  0.82160939  0.38948013    -0.43570
C3037       C  0.51620252  0.78987819  0.33749357     0.00020
C3038       C  0.54620550  0.78589460  0.32344202    -0.11860
C3039       C  0.54973420  0.77255683  0.29317081     0.02250
C3040       C  0.52290697  0.76241232  0.27579543    -0.00070
C3041       C  0.49291635  0.76620713  0.28971756    -0.11800
C3042       C  0.48925948  0.78008121  0.31972178     0.02140
H3043       H  0.56734313  0.79240922  0.33652017     0.15120
H3044       H  0.47199316  0.75952344  0.27639047     0.15120
C3045       C  0.45731291  0.78441598  0.33109163     0.36770
C3046       C  0.58147302  0.76966106  0.28102311     0.36680
N3047       N  0.43164153  0.78788002  0.34003729    -0.43570
N3048       N  0.60754957  0.76806832  0.27269216    -0.43570
C3049       C  0.39029357  0.70327698  0.46163941     0.00020
C3050       C  0.37402437  0.69668878  0.48999563    -0.11860
C3051       C  0.34700900  0.67759804  0.49000979     0.02250
C3052       C  0.33742623  0.66314036  0.46153284    -0.00070
C3053       C  0.34964860  0.67462288  0.43263667    -0.11800
C3054       C  0.37554169  0.69575634  0.43250248     0.02140
H3055       H  0.38339566  0.70499543  0.51239783     0.15120
H3056       H  0.34103604  0.66502103  0.41046873     0.15120
C3057       C  0.38718794  0.70778476  0.40241663     0.36770
C3058       C  0.33143652  0.67063610  0.51993512     0.36680
N3059       N  0.39624260  0.71766812  0.37827372    -0.43570
N3060       N  0.31894959  0.66515388  0.54390145    -0.43570
C3061       C  0.54361173  0.66532691  0.66530504     0.00020
C3062       C  0.56991085  0.66489404  0.64490802    -0.11860
C3063       C  0.57023299  0.68265218  0.61700437     0.02250
C3064       C  0.54474363  0.70267391  0.61048025    -0.00070
C3065       C  0.51973291  0.70510437  0.63209974    -0.11800
C3066       C  0.51866179  0.68637298  0.65927102     0.02140
H3067       H  0.58814091  0.64747078  0.64846618     0.15120
H3068       H  0.49962078  0.71963984  0.62633300     0.15120
C3069       C  0.49016827  0.68698486  0.67835114     0.36770
C3070       C  0.59343414  0.67509082  0.59309554     0.36680
N3071       N  0.46686218  0.68734201  0.69290807    -0.43570
N3072       N  0.61134648  0.66777907  0.57376046    -0.43570
C3073       C  0.65736606  0.70751128  0.49863313     0.00020
C3074       C  0.67171252  0.69758305  0.47043168    -0.11860
C3075       C  0.69442941  0.67419693  0.47102764     0.02250
C3076       C  0.70185710  0.65949945  0.50019800    -0.00070
C3077       C  0.69264151  0.67394545  0.52853068    -0.11800
C3078       C  0.67130869  0.69899561  0.52780746     0.02140
H3079       H  0.66338431  0.70625877  0.44769536     0.15120
H3080       H  0.70021103  0.66435451  0.55115259     0.15120
C3081       C  0.66334655  0.71439468  0.55710031     0.36770
C3082       C  0.70782464  0.66416710  0.44121575     0.36680
N3083       N  0.65736104  0.72701583  0.58057150    -0.43570
N3084       N  0.71849597  0.65638408  0.41724088    -0.43570
C3085       C  0.65030853  0.49555529  0.21944715     0.00020
C3086       C  0.66689115  0.52477575  0.21808816    -0.11860
C3087       C  0.69803502  0.52802249  0.22942571     0.02250
C3088       C  0.71410488  0.50154224  0.24160703    -0.00070
C3089       C  0.69813586  0.47217062  0.24230974    -0.11800
C3090       C  0.66675122  0.46890135  0.23143862     0.02140
H3091       H  0.65487541  0.54584107  0.21001865     0.15120
H3092       H  0.71046799  0.45151272  0.25094213     0.15120
C3093       C  0.65225630  0.43775524  0.23290112     0.36770
C3094       C  0.71218247  0.55929559  0.23026509     0.36680
N3095       N  0.64070377  0.41275679  0.23416991    -0.43570
N3096       N  0.72302194  0.58457508  0.23133696    -0.43570
C3097       C  0.30534684  0.52623175  0.23416707     0.00020
C3098       C  0.31945840  0.55516946  0.22478866    -0.11860
C3099       C  0.35109576  0.55701286  0.21402970     0.02250
C3100       C  0.37003705  0.52954718  0.21342143    -0.00070
C3101       C  0.35552480  0.50052145  0.22245242    -0.11800
C3102       C  0.32373525  0.49866848  0.23257119     0.02140
H3103       H  0.30551519  0.57646272  0.22537484     0.15120
H3104       H  0.36930371  0.47907866  0.22260947     0.15120
C3105       C  0.31086033  0.46809186  0.24169438     0.36770
C3106       C  0.36297722  0.58736389  0.20298408     0.36680
N3107       N  0.30100550  0.44337119  0.24902886    -0.43570
N3108       N  0.37218425  0.61173667  0.19386166    -0.43570
C3109       C  0.51090111  0.37604739  0.21995780     0.00020
C3110       C  0.48737553  0.36469149  0.24099853    -0.11860
C3111       C  0.48715822  0.33328878  0.25265721     0.02250
C3112       C  0.51052552  0.31158657  0.24262884    -0.00070
C3113       C  0.53464343  0.32356630  0.22222195    -0.11800
C3114       C  0.53477386  0.35499430  0.21067872     0.02140
H3115       H  0.46985554  0.38103103  0.24977112     0.15120
H3116       H  0.55379454  0.30830930  0.21531186     0.15120
C3117       C  0.55946754  0.36503212  0.18885840     0.36770
C3118       C  0.46297836  0.32513458  0.27565035     0.36680
N3119       N  0.57908015  0.37302875  0.17111911    -0.43570
N3120       N  0.44329297  0.32023190  0.29434528    -0.43570
C3121       C  0.51566947  0.65557073  0.20853968     0.00020
C3122       C  0.54563665  0.67046923  0.21035867    -0.11860
C3123       C  0.54938763  0.70166679  0.22155316     0.02250
C3124       C  0.52279670  0.71903572  0.23180168    -0.00070
C3125       C  0.49281207  0.70462171  0.22921706    -0.11800
C3126       C  0.48890771  0.67367722  0.21767111     0.02140
H3127       H  0.56652559  0.65747709  0.20357600     0.15120
H3128       H  0.47206421  0.71791509  0.23583608     0.15120
C3129       C  0.45685402  0.66137907  0.21632969     0.36770
C3130       C  0.58108040  0.71479826  0.22208714     0.36680
N3131       N  0.43105865  0.65174730  0.21554115    -0.43570
N3132       N  0.60692472  0.72432441  0.22140202    -0.43570
C3133       C  0.39847851  0.57968748  0.31793934     0.00020
C3134       C  0.36805202  0.58874123  0.30855540    -0.11860
C3135       C  0.34436285  0.59156609  0.33170108     0.02250
C3136       C  0.35116147  0.58257026  0.36297731    -0.00070
C3137       C  0.38264148  0.58046704  0.37270831    -0.11800
C3138       C  0.40661608  0.57995917  0.35029894     0.02140
H3139       H  0.36240628  0.59152916  0.28363811     0.15120
H3140       H  0.38815120  0.57624718  0.39750576     0.15120
C3141       C  0.43894335  0.57694729  0.36097838     0.36770
C3142       C  0.31445241  0.60540458  0.32402994     0.36680
N3143       N  0.46477900  0.57500680  0.36977097    -0.43570
N3144       N  0.29111476  0.61851331  0.31914602    -0.43570
C3145       C  0.49746367  0.65212469  0.30317096     0.00020
C3146       C  0.47102309  0.65350819  0.32329081    -0.11860
C3147       C  0.47259222  0.67116922  0.35096425     0.02250
C3148       C  0.49910594  0.69096902  0.35612403    -0.00070
C3149       C  0.52376260  0.69266473  0.33389894    -0.11800
C3150       C  0.52395483  0.67219086  0.30834488     0.02140
H3151       H  0.45155802  0.63670477  0.32036686     0.15120
H3152       H  0.54443528  0.70752493  0.33843739     0.15120
C3153       C  0.55352911  0.66843029  0.29153122     0.36770
C3154       C  0.45067201  0.66322503  0.37629350     0.36680
N3155       N  0.57773506  0.66488309  0.27916119    -0.43570
N3156       N  0.43402755  0.65543217  0.39690277    -0.43570
C3157       C  0.62590696  0.48842934  0.32810250     0.00020
C3158       C  0.62432065  0.46434493  0.35118525    -0.11860
C3159       C  0.64577503  0.46437389  0.37636730     0.02250
C3160       C  0.66900905  0.48860099  0.37785174    -0.00070
C3161       C  0.67275774  0.51020947  0.35281973    -0.11800
C3162       C  0.65134620  0.51042039  0.32801849     0.02140
H3163       H  0.60472884  0.44741685  0.35115019     0.15120
H3164       H  0.69125600  0.52831380  0.35375639     0.15120
C3165       C  0.65454452  0.53515253  0.30433248     0.36770
C3166       C  0.64148183  0.44152463  0.40175483     0.36680
N3167       N  0.65725175  0.55545276  0.28589251    -0.43570
N3168       N  0.63780793  0.42321368  0.42206820    -0.43570
C3169       C  0.51303082  0.25908059  0.63085789     0.00020
C3170       C  0.54105062  0.26009998  0.64879350    -0.11860
C3171       C  0.54206043  0.27405845  0.67891473     0.02250
C3172       C  0.51449811  0.28725152  0.69229655    -0.00070
C3173       C  0.48655488  0.28650868  0.67438735    -0.11800
C3174       C  0.48558928  0.27295990  0.64406584     0.02140
H3175       H  0.56263296  0.25059921  0.63886741     0.15120
H3176       H  0.46509884  0.29620823  0.68423069     0.15120
C3177       C  0.45650788  0.27569045  0.62646438     0.36770
C3178       C  0.57195411  0.27449109  0.69529480     0.36680
N3179       N  0.43316539  0.27832158  0.61247248    -0.43570
N3180       N  0.59630609  0.27407725  0.70776280    -0.43570
C3181       C  0.50444873  0.24321600  0.35032612     0.00020
C3182       C  0.47717108  0.24337886  0.33113594    -0.11860
C3183       C  0.47835869  0.25368836  0.29926814     0.02250
C3184       C  0.50683238  0.26643745  0.28618161    -0.00070
C3185       C  0.53415206  0.26564090  0.30494490    -0.11800
C3186       C  0.53358312  0.25280541  0.33591694     0.02140
H3187       H  0.45459331  0.23563888  0.34110683     0.15120
H3188       H  0.55641697  0.27414137  0.29487426     0.15120
C3189       C  0.56351505  0.24953904  0.35190272     0.36770
C3190       C  0.44972366  0.25146148  0.28078718     0.36680
N3191       N  0.58773929  0.24688798  0.36431479    -0.43570
N3192       N  0.42659926  0.24980728  0.26620981    -0.43570
C3193       C  0.36616232  0.25326236  0.48393051     0.00020
C3194       C  0.35016615  0.25650912  0.45485916    -0.11860
C3195       C  0.31999567  0.26984279  0.45300155     0.02250
C3196       C  0.30445325  0.28019310  0.48066596    -0.00070
C3197       C  0.32006962  0.27694885  0.50977291    -0.11800
C3198       C  0.35037592  0.26366727  0.51174831     0.02140
H3199       H  0.36153704  0.24921972  0.43306048     0.15120
H3200       H  0.30822670  0.28418423  0.53130589     0.15120
C3201       C  0.36445391  0.26178531  0.54278738     0.36770
C3202       C  0.30565701  0.27217351  0.42213959     0.36680
N3203       N  0.37528043  0.26054794  0.56791271    -0.43570
N3204       N  0.29506012  0.27328018  0.39691281    -0.43570
C3205       C  0.64648609  0.24804372  0.50247164     0.00020
C3206       C  0.66066903  0.25461566  0.47269808    -0.11860
C3207       C  0.69227226  0.26575644  0.47007612     0.02250
C3208       C  0.71077455  0.27039555  0.49744410    -0.00070
C3209       C  0.69755199  0.26145771  0.52693196    -0.11800
C3210       C  0.66580209  0.25089334  0.52973752     0.02140
H3211       H  0.64655384  0.25267339  0.45137204     0.15120
H3212       H  0.71198964  0.26323402  0.54802636     0.15120
C3213       C  0.65372504  0.24305265  0.56096280     0.36770
C3214       C  0.70537765  0.27229896  0.43898226     0.36680
N3215       N  0.64408619  0.23676250  0.58601922    -0.43570
N3216       N  0.71600289  0.27755214  0.41409834    -0.43570
C3217       C  0.49897852  0.33899345  0.35971947     0.00020
C3218       C  0.47188889  0.35692804  0.35462648    -0.11860
C3219       C  0.47338125  0.38505083  0.33734675     0.02250
C3220       C  0.50268172  0.39554139  0.32400818    -0.00070
C3221       C  0.52904847  0.37602147  0.32638334    -0.11800
C3222       C  0.52763677  0.34811645  0.34420818     0.02140
H3223       H  0.44970481  0.35016856  0.36599575     0.15120
H3224       H  0.55141586  0.38330244  0.31557466     0.15120
C3225       C  0.55673970  0.33094747  0.34719566     0.36770
C3226       C  0.44435281  0.40259520  0.33487079     0.36680
N3227       N  0.58090164  0.31853511  0.34912842    -0.43570
N3228       N  0.42089730  0.41635659  0.33350430    -0.43570
C3229       C  0.37872529  0.34273030  0.47009934     0.00020
C3230       C  0.36454480  0.35076433  0.49918043    -0.11860
C3231       C  0.34760771  0.37866063  0.50246973     0.02250
C3232       C  0.34417089  0.39906881  0.47599939    -0.00070
C3233       C  0.35436349  0.38856453  0.44605219    -0.11800
C3234       C  0.37131360  0.36063177  0.44284773     0.02140
H3235       H  0.36860885  0.33636699  0.52016143     0.15120
H3236       H  0.35009436  0.40277168  0.42499060     0.15120
C3237       C  0.38176361  0.35194263  0.41152706     0.36770
C3238       C  0.33618811  0.38633936  0.53376619     0.36680
N3239       N  0.38968401  0.34496968  0.38626667    -0.43570
N3240       N  0.32728342  0.39232360  0.55897966    -0.43570
C3241       C  0.51825238  0.35919775  0.61122569     0.00020
C3242       C  0.48903066  0.36922802  0.62348670    -0.11860
C3243       C  0.48740182  0.39468327  0.64414904     0.02250
C3244       C  0.51564610  0.41023468  0.65339391    -0.00070
C3245       C  0.54492808  0.39689039  0.64511445    -0.11800
C3246       C  0.54646953  0.37143543  0.62427011     0.02140
H3247       H  0.46709107  0.35869211  0.61497352     0.15120
H3248       H  0.56685851  0.40741993  0.65362069     0.15120
C3249       C  0.57723446  0.35986044  0.61542938     0.36770
C3250       C  0.45635517  0.40571875  0.65282303     0.36680
N3251       N  0.60197981  0.35044710  0.60880508    -0.43570
N3252       N  0.43130198  0.41426885  0.65953343    -0.43570
C3253       C  0.63371982  0.34813389  0.50214090     0.00020
C3254       C  0.63858158  0.36642863  0.52890108    -0.11860
C3255       C  0.65804645  0.39295219  0.52715386     0.02250
C3256       C  0.67472720  0.39991497  0.49847182    -0.00070
C3257       C  0.67432388  0.37789591  0.47385637    -0.11800
C3258       C  0.65328269  0.35229484  0.47518246     0.02140
H3259       H  0.62373591  0.36273509  0.54971557     0.15120
H3260       H  0.68801724  0.38224307  0.45237307     0.15120
C3261       C  0.64991887  0.33269805  0.44750920     0.36770
C3262       C  0.65716170  0.41363812  0.55424830     0.36680
N3263       N  0.64708830  0.31729714  0.42512897    -0.43570
N3264       N  0.65508613  0.42980163  0.57614256    -0.43570
loop_ 
_geom_bond_atom_site_label_1 
_geom_bond_atom_site_label_2 
_geom_bond_distance 
_geom_bond_site_symmetry_2 
_ccdc_geom_bond_type 
O1          Zr13   2.415       .  S
O1            C3   1.281       .  A
O2          Zr39   2.388       .  S
O2            C3   1.281       .  A
C3         C3253   1.446       .  S
O4          Zr16   2.412       .  S
O4            C6   1.277       .  A
O5          Zr40   2.437       .  S
O5            C6   1.285       .  A
C6         C3229   1.482       .  S
O7          Zr16   2.413       .  S
O7            C9   1.283       .  A
O8          Zr39   2.435       .  S
O8            C9   1.288       .  A
C9         C3241   1.477       .  S
O10         Zr13   2.406       .  S
O10          C12   1.274       .  A
O11         Zr40   2.426       .  S
O11          C12   1.286       .  A
C12        C3217   1.473       .  S
Zr13         O14   2.435       .  S
Zr13         O15   2.437       .  S
Zr13         O19   2.361       .  S
Zr13         O20   2.359       .  S
Zr13         O43   2.363       .  S
Zr13         O45   2.357       .  S
O14          H57   0.990       .  S
O15          H56   0.989       .  S
O15          H60   0.990       .  S
Zr16         O17   2.436       .  S
Zr16         O18   2.437       .  S
Zr16         O20   2.358       .  S
Zr16         O19   2.366       .  S
Zr16         O44   2.353       .  S
Zr16         O46   2.351       .  S
O17          H58   0.990       .  S
O17          H61   0.990       .  S
O18          H51   0.990       .  S
O19         Zr39   2.393       .  S
O20         Zr40   2.408       .  S
O20          H47   0.966       .  S
O21         Zr33   2.497       .  S
O21          C23   1.298       .  A
O22         Zr40   2.424       .  S
O22          C23   1.287       .  A
C23        C3181   1.511       .  S
O24         Zr36   2.500       .  S
O24          C26   1.298       .  A
O25         Zr39   2.412       .  S
O25          C26   1.284       .  A
C26        C3169   1.500       .  S
O27         Zr36   2.493       .  S
O27          C29   1.296       .  A
O28         Zr40   2.421       .  S
O28          C29   1.287       .  A
C29        C3193   1.507       .  S
O30         Zr33   2.503       .  S
O30          C32   1.299       .  A
O31         Zr39   2.434       .  S
O31          C32   1.289       .  A
C32        C3205   1.507       .  S
Zr33         O34   2.435       .  S
Zr33         O35   2.437       .  S
Zr33         O41   2.397       .  S
Zr33         O42   2.398       .  S
Zr33         O45   2.374       .  S
Zr33         O43   2.360       .  S
O34          H54   0.990       .  S
O34          H59   0.990       .  S
O35          H55   0.990       .  S
Zr36         O37   2.434       .  S
Zr36         O38   2.438       .  S
Zr36         O42   2.395       .  S
Zr36         O41   2.404       .  S
Zr36         O46   2.359       .  S
Zr36         O44   2.381       .  S
O37          H53   0.990       .  S
O38          H52   0.989       .  S
O38          H62   0.990       .  S
Zr39         O42   2.390       .  S
Zr39         O44   2.380       .  S
Zr39         O45   2.385       .  S
Zr40         O41   2.409       .  S
Zr40         O43   2.371       .  S
Zr40         O46   2.372       .  S
O41          H49   0.966       .  S
O44          H48   0.961       .  S
O45          H50   0.959       .  S
O63         Zr75   2.421       .  S
O63          C65   1.284       .  A
O64        Zr101   2.403       .  S
O64          C65   1.281       .  A
C65        C3157   1.456       .  S
O66         Zr78   2.436       .  S
O66          C68   1.289       .  A
O67        Zr102   2.393       .  S
O67          C68   1.278       .  A
C68        C3133   1.453       .  S
O69         Zr78   2.398       .  S
O69          C71   1.279       .  A
O70        Zr101   2.428       .  S
O70          C71   1.288       .  A
C71        C3220   1.473       .  S
O72         Zr75   2.394       .  S
O72          C74   1.280       .  A
O73        Zr102   2.417       .  S
O73          C74   1.284       .  A
C74        C3145   1.452       .  S
Zr75         O76   2.434       .  S
Zr75         O77   2.434       .  S
Zr75         O81   2.358       .  S
Zr75         O82   2.339       .  S
Zr75        O105   2.359       .  S
Zr75        O107   2.326       .  S
O76         H119   0.990       .  S
O77         H118   0.990       .  S
O77         H122   0.990       .  S
Zr78         O79   2.436       .  S
Zr78         O80   2.434       .  S
Zr78         O82   2.348       .  S
Zr78         O81   2.373       .  S
Zr78        O106   2.361       .  S
Zr78        O108   2.334       .  S
O79         H120   0.989       .  S
O79         H123   0.990       .  S
O80         H113   0.990       .  S
O81        Zr101   2.387       .  S
O82        Zr102   2.391       .  S
O82         H109   0.964       .  S
O83         Zr95   2.520       .  S
O83          C85   1.301       .  A
O84        Zr102   2.400       .  S
O84          C85   1.277       .  A
C85        C3121   1.515       .  S
O86         Zr98   2.517       .  S
O86          C88   1.300       .  A
O87        Zr101   2.409       .  S
O87          C88   1.282       .  A
C88        C3109   1.498       .  S
O89         Zr98   2.496       .  S
O89          C91   1.299       .  A
O90        Zr102   2.439       .  S
O90          C91   1.288       .  A
C91        C3100   1.508       .  S
O92         Zr95   2.496       .  S
O92          C94   1.299       .  A
O93        Zr101   2.432       .  S
O93          C94   1.288       .  A
C94        C3085   1.507       .  S
Zr95         O96   2.438       .  S
Zr95         O97   2.434       .  S
Zr95        O103   2.408       .  S
Zr95        O104   2.410       .  S
Zr95        O107   2.384       .  S
Zr95        O105   2.356       .  S
O96         H116   0.989       .  S
O96         H121   0.989       .  S
O97         H117   0.990       .  S
Zr98         O99   2.434       .  S
Zr98        O100   2.438       .  S
Zr98        O104   2.397       .  S
Zr98        O103   2.408       .  S
Zr98        O108   2.366       .  S
Zr98        O106   2.365       .  S
O99         H115   0.990       .  S
O100        H114   0.990       .  S
O100        H124   0.990       .  S
Zr101       O104   2.395       .  S
Zr101       O106   2.383       .  S
Zr101       O107   2.385       .  S
Zr102       O103   2.402       .  S
Zr102       O105   2.377       .  S
Zr102       O108   2.362       .  S
O103        H111   0.966       .  S
O106        H110   0.962       .  S
O107        H112   0.962       .  S
O125       Zr137   2.433       .  S
O125        C127   1.286       .  A
O126       Zr163   2.391       .  S
O126        C127   1.279       .  A
C127       C3148   1.451       .  S
O128       Zr140   2.419       .  S
O128        C130   1.285       .  A
O129       Zr164   2.391       .  S
O129        C130   1.280       .  A
C130       C3064   1.450       .  S
O131       Zr140   2.456       .  S
O131        C133   1.293       .  A
O132       Zr163   2.388       .  S
O132        C133   1.278       .  A
C133       C3049   1.472       .  S
O134       Zr137   2.428       .  S
O134        C136   1.287       .  A
O135       Zr164   2.409       .  S
O135        C136   1.282       .  A
C136       C3073   1.477       .  S
Zr137       O138   2.434       .  S
Zr137       O139   2.438       .  S
Zr137       O143   2.366       .  S
Zr137       O144   2.349       .  S
Zr137       O167   2.357       .  S
Zr137       O169   2.350       .  S
O138        H181   0.990       .  S
O139        H180   0.990       .  S
O139        H184   0.990       .  S
Zr140       O141   2.434       .  S
Zr140       O142   2.434       .  S
Zr140       O144   2.365       .  S
Zr140       O143   2.354       .  S
Zr140       O168   2.341       .  S
Zr140       O170   2.371       .  S
O141        H182   0.990       .  S
O141        H185   0.990       .  S
O142        H175   0.990       .  S
O143       Zr163   2.391       .  S
O144       Zr164   2.391       .  S
O144        H171   0.966       .  S
O145       Zr157   2.504       .  S
O145        C147   1.298       .  A
O146       Zr164   2.406       .  S
O146        C147   1.280       .  A
C147       C3004   1.509       .  S
O148       Zr160   2.498       .  S
O148        C150   1.298       .  A
O149       Zr163   2.426       .  S
O149        C150   1.285       .  A
C150       C3028   1.501       .  S
O151       Zr160   2.499       .  S
O151        C153   1.297       .  A
O152       Zr164   2.416       .  S
O152        C153   1.284       .  A
C153       C3016   1.505       .  S
O154       Zr157   2.504       .  S
O154        C156   1.300       .  A
O155       Zr163   2.415       .  S
O155        C156   1.283       .  A
C156       C3037   1.511       .  S
Zr157       O158   2.435       .  S
Zr157       O159   2.436       .  S
Zr157       O165   2.406       .  S
Zr157       O166   2.405       .  S
Zr157       O169   2.379       .  S
Zr157       O167   2.364       .  S
O158        H178   0.990       .  S
O158        H183   0.990       .  S
O159        H179   0.990       .  S
Zr160       O161   2.434       .  S
Zr160       O162   2.438       .  S
Zr160       O166   2.405       .  S
Zr160       O165   2.398       .  S
Zr160       O170   2.366       .  S
Zr160       O168   2.369       .  S
O161        H177   0.990       .  S
O162        H176   0.990       .  S
O162        H186   0.990       .  S
Zr163       O166   2.383       .  S
Zr163       O168   2.377       .  S
Zr163       O169   2.385       .  S
Zr164       O165   2.391       .  S
Zr164       O167   2.367       .  S
Zr164       O170   2.371       .  S
O165        H173   0.966       .  S
O168        H172   0.960       .  S
O169        H174   0.962       .  S
O187       Zr199   2.381       .  S
O187        C189   1.276       .  A
O188       Zr225   2.424       .  S
O188        C189   1.286       .  A
C189       C3256   1.461       .  S
O190       Zr202   2.409       .  S
O190        C192   1.283       .  A
O191       Zr226   2.423       .  S
O191        C192   1.285       .  A
C192       C3076   1.470       .  S
O193       Zr202   2.441       .  S
O193        C195   1.288       .  A
O194       Zr225   2.384       .  S
O194        C195   1.277       .  A
C195       C3160   1.453       .  S
O196       Zr199   2.412       .  S
O196        C198   1.283       .  A
O197       Zr226   2.419       .  S
O197        C198   1.284       .  A
C198       C2989   1.470       .  S
Zr199       O200   2.435       .  S
Zr199       O201   2.438       .  S
Zr199       O205   2.363       .  S
Zr199       O206   2.349       .  S
Zr199       O229   2.327       .  S
Zr199       O231   2.351       .  S
O200        H243   0.990       .  S
O201        H242   0.990       .  S
O201        H246   0.989       .  S
Zr202       O203   2.435       .  S
Zr202       O204   2.433       .  S
Zr202       O206   2.361       .  S
Zr202       O205   2.348       .  S
Zr202       O230   2.339       .  S
Zr202       O232   2.367       .  S
O203        H244   0.990       .  S
O203        H247   0.990       .  S
O204        H237   0.990       .  S
O205       Zr225   2.391       .  S
O206       Zr226   2.388       .  S
O206        H233   0.966       .  S
O207       Zr219   2.513       .  S
O207        C209   1.301       .  A
O208       Zr226   2.422       .  S
O208        C209   1.285       .  A
C209       C2953   1.514       .  S
O210       Zr222   2.494       .  S
O210        C212   1.298       .  A
O211       Zr225   2.449       .  S
O211        C212   1.291       .  A
C212       C2977   1.503       .  S
O213       Zr222   2.514       .  S
O213        C215   1.298       .  A
O214       Zr226   2.400       .  S
O214        C215   1.279       .  A
C215       C2941   1.510       .  S
O216       Zr219   2.526       .  S
O216        C218   1.302       .  A
O217       Zr225   2.411       .  S
O217        C218   1.282       .  A
C218       C2965   1.503       .  S
Zr219       O220   2.435       .  S
Zr219       O221   2.436       .  S
Zr219       O227   2.408       .  S
Zr219       O228   2.402       .  S
Zr219       O231   2.367       .  S
Zr219       O229   2.361       .  S
O220        H240   0.990       .  S
O220        H245   0.990       .  S
O221        H241   0.990       .  S
Zr222       O223   2.434       .  S
Zr222       O224   2.436       .  S
Zr222       O228   2.407       .  S
Zr222       O227   2.400       .  S
Zr222       O232   2.365       .  S
Zr222       O230   2.383       .  S
O223        H239   0.990       .  S
O224        H238   0.990       .  S
O224        H248   0.990       .  S
Zr225       O228   2.389       .  S
Zr225       O230   2.382       .  S
Zr225       O231   2.379       .  S
Zr226       O227   2.403       .  S
Zr226       O229   2.356       .  S
Zr226       O232   2.378       .  S
O227        H235   0.966       .  S
O230        H234   0.962       .  S
O231        H236   0.961       .  S
O249       Zr261   2.413       .  S
O249        C251   1.282       .  A
O250       Zr287   2.390       .  S
O250        C251   1.279       .  A
C251       C2929   1.450       .  S
O252       Zr264   2.410       .  S
O252        C254   1.285       .  A
O253       Zr288   2.415       .  S
O253        C254   1.282       .  A
C254       C2992   1.467       .  S
O255       Zr264   2.423       .  S
O255        C257   1.286       .  A
O256       Zr287   2.427       .  S
O256        C257   1.287       .  A
C257       C3244   1.479       .  S
O258       Zr261   2.412       .  S
O258        C260   1.276       .  A
O259       Zr288   2.396       .  S
O259        C260   1.279       .  A
C260       C3061   1.457       .  S
Zr261       O262   2.435       .  S
Zr261       O263   2.436       .  S
Zr261       O267   2.360       .  S
Zr261       O268   2.355       .  S
Zr261       O291   2.351       .  S
Zr261       O293   2.366       .  S
O262        H305   0.990       .  S
O263        H304   0.989       .  S
O263        H308   0.990       .  S
Zr264       O265   2.435       .  S
Zr264       O266   2.434       .  S
Zr264       O268   2.353       .  S
Zr264       O267   2.352       .  S
Zr264       O292   2.353       .  S
Zr264       O294   2.353       .  S
O265        H306   0.990       .  S
O265        H309   0.990       .  S
O266        H299   0.990       .  S
O267       Zr287   2.383       .  S
O268       Zr288   2.398       .  S
O268        H295   0.966       .  S
O269       Zr281   2.526       .  S
O269        C271   1.302       .  A
O270       Zr288   2.412       .  S
O270        C271   1.282       .  A
C271       C2881   1.515       .  S
O272       Zr284   2.509       .  S
O272        C274   1.300       .  A
O273       Zr287   2.402       .  S
O273        C274   1.281       .  A
C274       C2920   1.510       .  S
O275       Zr284   2.511       .  S
O275        C277   1.299       .  A
O276       Zr288   2.411       .  S
O276        C277   1.279       .  A
C277       C2893   1.512       .  S
O278       Zr281   2.512       .  S
O278        C280   1.300       .  A
O279       Zr287   2.431       .  S
O279        C280   1.288       .  A
C280       C2905   1.510       .  S
Zr281       O282   2.437       .  S
Zr281       O283   2.434       .  S
Zr281       O289   2.415       .  S
Zr281       O290   2.408       .  S
Zr281       O293   2.389       .  S
Zr281       O291   2.350       .  S
O282        H302   0.989       .  S
O282        H307   0.990       .  S
O283        H303   0.990       .  S
Zr284       O285   2.434       .  S
Zr284       O286   2.437       .  S
Zr284       O290   2.406       .  S
Zr284       O289   2.406       .  S
Zr284       O294   2.361       .  S
Zr284       O292   2.370       .  S
O285        H301   0.990       .  S
O286        H300   0.990       .  S
O286        H310   0.990       .  S
Zr287       O290   2.389       .  S
Zr287       O292   2.379       .  S
Zr287       O293   2.391       .  S
Zr288       O289   2.400       .  S
Zr288       O291   2.373       .  S
Zr288       O294   2.370       .  S
O289        H297   0.966       .  S
O292        H296   0.962       .  S
O293        H298   0.964       .  S
O311       Zr323   2.430       .  S
O311        C313   1.288       .  A
O312       Zr349   2.427       .  S
O312        C313   1.287       .  A
C313       C3232   1.486       .  S
O314       Zr326   2.395       .  S
O314        C316   1.279       .  A
O315       Zr350   2.425       .  S
O315        C316   1.283       .  A
C316       C3052   1.465       .  S
O317       Zr326   2.402       .  S
O317        C319   1.278       .  A
O318       Zr349   2.404       .  S
O318        C319   1.280       .  A
C319       C2932   1.441       .  S
O320       Zr323   2.441       .  S
O320        C322   1.291       .  A
O321       Zr350   2.393       .  S
O321        C322   1.278       .  A
C322       C3136   1.453       .  S
Zr323       O324   2.434       .  S
Zr323       O325   2.433       .  S
Zr323       O329   2.357       .  S
Zr323       O330   2.361       .  S
Zr323       O353   2.342       .  S
Zr323       O355   2.366       .  S
O324        H367   0.990       .  S
O325        H366   0.990       .  S
O325        H370   0.990       .  S
Zr326       O327   2.439       .  S
Zr326       O328   2.436       .  S
Zr326       O330   2.333       .  S
Zr326       O329   2.358       .  S
Zr326       O354   2.334       .  S
Zr326       O356   2.353       .  S
O327        H368   0.990       .  S
O327        H371   0.990       .  S
O328        H361   0.990       .  S
O329       Zr349   2.378       .  S
O330       Zr350   2.391       .  S
O330        H357   0.964       .  S
O331       Zr343   2.472       .  S
O331        C333   1.293       .  A
O332       Zr350   2.445       .  S
O332        C333   1.290       .  A
C333       C2845   1.500       .  S
O334       Zr346   2.495       .  S
O334        C336   1.297       .  A
O335       Zr349   2.421       .  S
O335        C336   1.286       .  A
C336       C2833   1.482       .  S
O337       Zr346   2.521       .  S
O337        C339   1.301       .  A
O338       Zr350   2.407       .  S
O338        C339   1.279       .  A
C339       C2857   1.516       .  S
O340       Zr343   2.511       .  S
O340        C342   1.299       .  A
O341       Zr349   2.393       .  S
O341        C342   1.279       .  A
C342       C2869   1.506       .  S
Zr343       O344   2.436       .  S
Zr343       O345   2.438       .  S
Zr343       O351   2.405       .  S
Zr343       O352   2.385       .  S
Zr343       O355   2.367       .  S
Zr343       O353   2.374       .  S
O344        H364   0.990       .  S
O344        H369   0.990       .  S
O345        H365   0.990       .  S
Zr346       O347   2.434       .  S
Zr346       O348   2.437       .  S
Zr346       O352   2.404       .  S
Zr346       O351   2.405       .  S
Zr346       O356   2.356       .  S
Zr346       O354   2.394       .  S
O347        H363   0.990       .  S
O348        H362   0.990       .  S
O348        H372   0.990       .  S
Zr349       O352   2.389       .  S
Zr349       O354   2.386       .  S
Zr349       O355   2.378       .  S
Zr350       O351   2.404       .  S
Zr350       O353   2.365       .  S
Zr350       O356   2.375       .  S
O351        H359   0.966       .  S
O354        H358   0.964       .  S
O355        H360   0.962       .  S
O373       Zr385   2.378       .  S
O373        C375   1.276   1_554  A
O374       Zr411   2.421       .  S
O374        C375   1.283       .  A
C375       C2821   1.466       .  S
O376       Zr388   2.395       .  S
O376        C378   1.272       .  A
O377       Zr412   2.458       .  S
O377        C378   1.290   1_554  A
C378       C2812   1.481       .  S
O379       Zr388   2.397       .  S
O379        C381   1.280       .  A
O380       Zr411   2.421       .  S
O380        C381   1.283       .  A
C381       C2785   1.462       .  S
O382       Zr385   2.397       .  S
O382        C384   1.270       .  A
O383       Zr412   2.419       .  S
O383        C384   1.280       .  A
C384       C2797   1.463       .  S
Zr385       O386   2.435       .  S
Zr385       O387   2.438       .  S
Zr385       O391   2.352   1_554  S
Zr385       O392   2.355       .  S
Zr385       O415   2.340       .  S
Zr385       O417   2.361       .  S
O386        H429   0.990       .  S
O387        H428   0.990       .  S
O387        H432   0.990       .  S
Zr388       O389   2.437       .  S
Zr388       O390   2.430       .  S
Zr388       O392   2.363   1_556  S
Zr388       O391   2.347       .  S
Zr388       O416   2.343       .  S
Zr388       O418   2.351       .  S
O389        H430   0.990       .  S
O389        H433   0.990       .  S
O390        H423   0.989       .  S
O391       Zr411   2.388       .  S
O392       Zr412   2.411       .  S
O392        H419   0.965       .  S
O393       Zr405   2.504       .  S
O393        C395   1.301       .  A
O394       Zr412   2.420       .  S
O394        C395   1.286       .  A
C395       C2761   1.505       .  S
O396       Zr408   2.481       .  S
O396        C398   1.296       .  A
O397       Zr411   2.440       .  S
O397        C398   1.290       .  A
C398       C2773   1.495       .  S
O399       Zr408   2.535       .  S
O399        C401   1.304       .  A
O400       Zr412   2.396       .  S
O400        C401   1.276   1_554  A
C401       C2737   1.519       .  S
O402       Zr405   2.513       .  S
O402        C404   1.300   1_554  A
O403       Zr411   2.417       .  S
O403        C404   1.285       .  A
C404       C2749   1.504       .  S
Zr405       O406   2.434       .  S
Zr405       O407   2.436       .  S
Zr405       O413   2.407       .  S
Zr405       O414   2.399   1_554  S
Zr405       O417   2.381       .  S
Zr405       O415   2.353       .  S
O406        H426   0.990       .  S
O406        H431   0.990       .  S
O407        H427   0.990       .  S
Zr408       O409   2.435       .  S
Zr408       O410   2.437       .  S
Zr408       O414   2.412       .  S
Zr408       O413   2.397   1_556  S
Zr408       O418   2.341       .  S
Zr408       O416   2.402       .  S
O409        H425   0.990       .  S
O410        H424   0.990       .  S
O410        H434   0.990       .  S
Zr411       O414   2.397       .  S
Zr411       O416   2.386       .  S
Zr411       O417   2.394   1_556  S
Zr412       O413   2.411       .  S
Zr412       O415   2.374       .  S
Zr412       O418   2.371   1_554  S
O413        H421   0.966       .  S
O416        H420   0.963       .  S
O417        H422   0.962       .  S
O435       Zr447   2.449       .  S
O435        C437   1.289   1_455  A
O436       Zr473   2.381       .  S
O436        C437   1.277       .  A
C437       C2716   1.457       .  S
O438       Zr450   2.432   1_455  S
O438        C440   1.285       .  A
O439       Zr474   2.409       .  S
O439        C440   1.281       .  A
C440       C2725   1.462       .  S
O441       Zr450   2.399       .  S
O441        C443   1.271       .  A
O442       Zr473   2.426       .  S
O442        C443   1.277       .  A
C443       C2788   1.465       .  S
O444       Zr447   2.398       .  S
O444        C446   1.272       .  A
O445       Zr474   2.422       .  S
O445        C446   1.278       .  A
C446       C2704   1.458       .  S
Zr447       O448   2.436       .  S
Zr447       O449   2.445       .  S
Zr447       O453   2.330   1_455  S
Zr447       O454   2.383       .  S
Zr447       O477   2.363       .  S
Zr447       O479   2.334       .  S
O448        H491   0.990       .  S
O449        H490   0.990       .  S
O449        H494   0.990       .  S
Zr450       O451   2.437       .  S
Zr450       O452   2.436       .  S
Zr450       O454   2.359   1_655  S
Zr450       O453   2.364       .  S
Zr450       O478   2.373       .  S
Zr450       O480   2.345   1_655  S
O451        H492   0.990   1_655  S
O451        H495   0.990       .  S
O452        H485   0.990       .  S
O453       Zr473   2.394       .  S
O454       Zr474   2.415       .  S
O454        H481   0.966       .  S
O455       Zr467   2.514       .  S
O455        C457   1.302       .  A
O456       Zr474   2.424       .  S
O456        C457   1.285       .  A
C457       C2653   1.512       .  S
O458       Zr470   2.501       .  S
O458        C460   1.298       .  A
O459       Zr473   2.400       .  S
O459        C460   1.281       .  A
C460       C2689   1.501       .  S
O461       Zr470   2.479   1_455  S
O461        C463   1.294       .  A
O462       Zr474   2.446       .  S
O462        C463   1.291       .  A
C463       C2677   1.503       .  S
O464       Zr467   2.495       .  S
O464        C466   1.298   1_455  A
O465       Zr473   2.444       .  S
O465        C466   1.290       .  A
C466       C2668   1.500       .  S
Zr467       O468   2.438       .  S
Zr467       O469   2.435       .  S
Zr467       O475   2.410       .  S
Zr467       O476   2.404   1_455  S
Zr467       O479   2.393       .  S
Zr467       O477   2.345       .  S
O468        H488   0.990       .  S
O468        H493   0.989       .  S
O469        H489   0.990       .  S
Zr470       O471   2.434       .  S
Zr470       O472   2.439       .  S
Zr470       O476   2.396       .  S
Zr470       O475   2.410   1_655  S
Zr470       O480   2.370   1_655  S
Zr470       O478   2.378       .  S
O471        H487   0.990       .  S
O472        H486   0.990       .  S
O472        H496   0.990       .  S
Zr473       O476   2.391       .  S
Zr473       O478   2.404       .  S
Zr473       O479   2.382   1_655  S
Zr474       O475   2.412       .  S
Zr474       O477   2.382       .  S
Zr474       O480   2.373       .  S
O475        H483   0.966       .  S
O478        H482   0.964       .  S
O479        H484   0.962       .  S
O497       Zr509   2.398   1_556  S
O497        C499   1.274       .  A
O498       Zr535   2.432       .  S
O498        C499   1.283       .  A
C499       C2629   1.463       .  S
O500       Zr512   2.353       .  S
O500        C502   1.271   1_556  A
O501       Zr536   2.453       .  S
O501        C502   1.290       .  A
C502       C2644   1.471       .  S
O503       Zr512   2.390       .  S
O503        C505   1.278       .  A
O504       Zr535   2.412       .  S
O504        C505   1.283       .  A
C505       C2701   1.439       .  S
O506       Zr509   2.393       .  S
O506        C508   1.278       .  A
O507       Zr536   2.406       .  S
O507        C508   1.282       .  A
C508       C2620   1.449       .  S
Zr509       O510   2.435       .  S
Zr509       O511   2.447       .  S
Zr509       O515   2.365   1_554  S
Zr509       O516   2.357       .  S
Zr509       O539   2.335       .  S
Zr509       O541   2.348   1_554  S
O510        H553   0.990       .  S
O511        H552   0.988       .  S
O511        H556   0.990       .  S
Zr512       O513   2.434       .  S
Zr512       O514   2.434       .  S
Zr512       O516   2.356   1_556  S
Zr512       O515   2.324       .  S
Zr512       O540   2.336       .  S
Zr512       O542   2.365       .  S
O513        H554   0.989       .  S
O513        H557   0.990       .  S
O514        H547   0.990       .  S
O515       Zr535   2.372       .  S
O516       Zr536   2.380       .  S
O516        H543   0.966       .  S
O517       Zr529   2.504       .  S
O517        C519   1.299       .  A
O518       Zr536   2.408       .  S
O518        C519   1.282       .  A
C519       C2581   1.506       .  S
O520       Zr532   2.501       .  S
O520        C522   1.298       .  A
O521       Zr535   2.413       .  S
O521        C522   1.286       .  A
C522       C2569   1.501       .  S
O523       Zr532   2.498       .  S
O523        C525   1.297       .  A
O524       Zr536   2.407       .  S
O524        C525   1.281   1_554  A
C525       C2593   1.509       .  S
O526       Zr529   2.514   1_556  S
O526        C528   1.300       .  A
O527       Zr535   2.422       .  S
O527        C528   1.284       .  A
C528       C2605   1.495       .  S
Zr529       O530   2.434       .  S
Zr529       O531   2.435       .  S
Zr529       O537   2.414       .  S
Zr529       O538   2.395   1_554  S
Zr529       O541   2.389   1_554  S
Zr529       O539   2.364       .  S
O530        H550   0.990       .  S
O530        H555   0.990       .  S
O531        H551   0.990       .  S
Zr532       O533   2.434       .  S
Zr532       O534   2.438       .  S
Zr532       O538   2.399       .  S
Zr532       O537   2.390   1_556  S
Zr532       O542   2.373       .  S
Zr532       O540   2.366       .  S
O533        H549   0.990       .  S
O534        H548   0.990       .  S
O534        H558   0.990       .  S
Zr535       O538   2.392       .  S
Zr535       O540   2.377       .  S
Zr535       O541   2.388       .  S
Zr536       O537   2.407       .  S
Zr536       O539   2.372       .  S
Zr536       O542   2.368   1_554  S
O537        H545   0.966       .  S
O540        H544   0.960       .  S
O541        H546   0.962       .  S
O559       Zr571   2.441       .  S
O559        C561   1.286   1_455  A
O560       Zr597   2.405       .  S
O560        C561   1.281       .  A
C561       C2560   1.467       .  S
O562       Zr574   2.424   1_455  S
O562        C564   1.286       .  A
O563       Zr598   2.406       .  S
O563        C564   1.281       .  A
C564       C2548   1.458       .  S
O565       Zr574   2.376       .  S
O565        C567   1.277       .  A
O566       Zr597   2.445       .  S
O566        C567   1.290       .  A
C567       C2800   1.482       .  S
O568       Zr571   2.408       .  S
O568        C570   1.275       .  A
O569       Zr598   2.423       .  S
O569        C570   1.282       .  A
C570       C2617   1.472       .  S
Zr571       O572   2.435       .  S
Zr571       O573   2.435       .  S
Zr571       O577   2.356   1_455  S
Zr571       O578   2.352       .  S
Zr571       O601   2.364       .  S
Zr571       O603   2.330       .  S
O572        H615   0.990       .  S
O573        H614   0.989       .  S
O573        H618   0.989       .  S
Zr574       O575   2.435       .  S
Zr574       O576   2.435       .  S
Zr574       O578   2.344   1_655  S
Zr574       O577   2.372       .  S
Zr574       O602   2.361       .  S
Zr574       O604   2.341   1_655  S
O575        H616   0.989   1_655  S
O575        H619   0.990       .  S
O576        H609   0.990       .  S
O577       Zr597   2.393       .  S
O578       Zr598   2.404       .  S
O578        H605   0.965       .  S
O579       Zr591   2.515       .  S
O579        C581   1.300       .  A
O580       Zr598   2.402       .  S
O580        C581   1.279       .  A
C581       C2512   1.508       .  S
O582       Zr594   2.502       .  S
O582        C584   1.298       .  A
O583       Zr597   2.415       .  S
O583        C584   1.284       .  A
C584       C2497   1.495       .  S
O585       Zr594   2.483       .  S
O585        C587   1.296   1_655  A
O586       Zr598   2.436       .  S
O586        C587   1.288       .  A
C587       C2533   1.509       .  S
O588       Zr591   2.494       .  S
O588        C590   1.298   1_455  A
O589       Zr597   2.443       .  S
O589        C590   1.291       .  A
C590       C2524   1.513       .  S
Zr591       O592   2.435       .  S
Zr591       O593   2.434       .  S
Zr591       O599   2.400       .  S
Zr591       O600   2.404   1_455  S
Zr591       O603   2.390       .  S
Zr591       O601   2.349       .  S
O592        H612   0.990       .  S
O592        H617   0.990       .  S
O593        H613   0.990       .  S
Zr594       O595   2.434       .  S
Zr594       O596   2.438       .  S
Zr594       O600   2.395       .  S
Zr594       O599   2.401   1_655  S
Zr594       O604   2.373   1_655  S
Zr594       O602   2.366       .  S
O595        H611   0.990       .  S
O596        H610   0.990       .  S
O596        H620   0.990       .  S
Zr597       O600   2.396       .  S
Zr597       O602   2.384       .  S
Zr597       O603   2.387   1_655  S
Zr598       O599   2.406       .  S
Zr598       O601   2.377       .  S
Zr598       O604   2.367       .  S
O599        H607   0.966       .  S
O602        H606   0.962       .  S
O603        H608   0.961       .  S
O621       Zr633   2.435       .  S
O621        C623   1.288   1_554  A
O622       Zr659   2.427       .  S
O622        C623   1.289       .  A
C623       C2809   1.469       .  S
O624       Zr636   2.369       .  S
O624        C626   1.277       .  A
O625       Zr660   2.426       .  S
O625        C626   1.285   1_554  A
C626       C2632   1.458       .  S
O627       Zr636   2.421       .  S
O627        C629   1.284   1_455  A
O628       Zr659   2.404       .  S
O628        C629   1.281       .  A
C629       C2713   1.457       .  S
O630       Zr633   2.442   1_455  S
O630        C632   1.290       .  A
O631       Zr660   2.401       .  S
O631        C632   1.280       .  A
C632       C2545   1.458       .  S
Zr633       O634   2.435       .  S
Zr633       O635   2.428       .  S
Zr633       O639   2.369   1_554  S
Zr633       O640   2.352   1_655  S
Zr633       O663   2.359   1_655  S
Zr633       O665   2.362       .  S
O634        H677   0.990   1_554  S
O635        H676   0.987       .  S
O635        H680   0.990       .  S
Zr636       O637   2.435       .  S
Zr636       O638   2.435       .  S
Zr636       O640   2.334   1_556  S
Zr636       O639   2.345   1_455  S
Zr636       O664   2.320       .  S
Zr636       O666   2.368       .  S
O637        H678   0.990       .  S
O637        H681   0.990       .  S
O638        H671   0.990       .  S
O639       Zr659   2.386       .  S
O640       Zr660   2.396       .  S
O640        H667   0.965       .  S
O641       Zr653   2.473       .  S
O641        C643   1.294   1_655  A
O642       Zr660   2.448       .  S
O642        C643   1.291       .  A
C643       C2488   1.501       .  S
O644       Zr656   2.498       .  S
O644        C646   1.299   1_455  A
O645       Zr659   2.440       .  S
O645        C646   1.291       .  A
C646       C2464   1.512       .  S
O647       Zr656   2.520       .  S
O647        C649   1.300       .  A
O648       Zr660   2.417       .  S
O648        C649   1.283   1_554  A
C649       C2473   1.521       .  S
O650       Zr653   2.527       .  S
O650        C652   1.300   1_554  A
O651       Zr659   2.403       .  S
O651        C652   1.278       .  A
C652       C2449   1.520       .  S
Zr653       O654   2.436       .  S
Zr653       O655   2.437       .  S
Zr653       O661   2.412   1_654  S
Zr653       O662   2.393   1_554  S
Zr653       O665   2.361       .  S
Zr653       O663   2.382   1_655  S
O654        H674   0.990       .  S
O654        H679   0.990   1_554  S
O655        H675   0.990       .  S
Zr656       O657   2.434       .  S
Zr656       O658   2.435       .  S
Zr656       O662   2.407   1_455  S
Zr656       O661   2.405       .  S
Zr656       O666   2.351       .  S
Zr656       O664   2.383       .  S
O657        H673   0.990       .  S
O658        H672   0.990       .  S
O658        H682   0.990       .  S
Zr659       O662   2.390       .  S
Zr659       O664   2.379   1_655  S
Zr659       O665   2.386   1_556  S
Zr660       O661   2.402   1_554  S
Zr660       O663   2.375       .  S
Zr660       O666   2.375   1_554  S
O661        H669   0.966   1_556  S
O664        H668   0.961       .  S
O665        H670   0.959       .  S
O683       Zr695   2.381   1_655  S
O683        C685   1.276       .  A
O684       Zr721   2.416       .  S
O684        C685   1.284   1_554  A
C685       C2824   1.433       .  S
O686       Zr698   2.410       .  S
O686        C688   1.270   1_554  A
O687       Zr722   2.430       .  S
O687        C688   1.283       .  A
C688       C2641   1.451       .  S
O689       Zr698   2.455       .  S
O689        C691   1.290   1_455  A
O690       Zr721   2.393       .  S
O690        C691   1.278       .  A
C691       C2557   1.467       .  S
O692       Zr695   2.419       .  S
O692        C694   1.284       .  A
O693       Zr722   2.420       .  S
O693        C694   1.284       .  A
C694       C2728   1.466       .  S
Zr695       O696   2.434       .  S
Zr695       O697   2.436   1_455  S
Zr695       O701   2.373   1_556  S
Zr695       O702   2.346       .  S
Zr695       O725   2.339       .  S
Zr695       O727   2.356   1_455  S
O696        H739   0.990   1_455  S
O697        H738   0.990       .  S
O697        H742   0.990       .  S
Zr698       O699   2.446       .  S
Zr698       O700   2.435       .  S
Zr698       O702   2.377   1_554  S
Zr698       O701   2.354       .  S
Zr698       O726   2.333       .  S
Zr698       O728   2.375       .  S
O699        H740   0.988   1_554  S
O699        H743   0.989       .  S
O700        H733   0.990       .  S
O701       Zr721   2.389   1_455  S
O702       Zr722   2.398       .  S
O702        H729   0.964       .  S
O703       Zr715   2.508   1_455  S
O703        C705   1.300       .  A
O704       Zr722   2.431       .  S
O704        C705   1.289       .  A
C705       C2425   1.514       .  S
O706       Zr718   2.505       .  S
O706        C708   1.300       .  A
O707       Zr721   2.431       .  S
O707        C708   1.287   1_655  A
C708       C2437   1.501       .  S
O709       Zr718   2.535       .  S
O709        C711   1.302   1_554  A
O710       Zr722   2.389       .  S
O710        C711   1.273       .  A
C711       C2416   1.515       .  S
O712       Zr715   2.518       .  S
O712        C714   1.301   1_556  A
O713       Zr721   2.406       .  S
O713        C714   1.281       .  A
C714       C2404   1.507   1_554  S
Zr715       O716   2.436   1_655  S
Zr715       O717   2.434       .  S
Zr715       O723   2.404   1_655  S
Zr715       O724   2.402   1_656  S
Zr715       O727   2.367       .  S
Zr715       O725   2.367   1_655  S
O716        H736   0.990       .  S
O716        H741   0.990   1_455  S
O717        H737   0.990       .  S
Zr718       O719   2.434       .  S
Zr718       O720   2.437       .  S
Zr718       O724   2.412       .  S
Zr718       O723   2.407   1_554  S
Zr718       O728   2.348       .  S
Zr718       O726   2.397       .  S
O719        H735   0.990       .  S
O720        H734   0.990       .  S
O720        H744   0.990       .  S
Zr721       O724   2.389   1_655  S
Zr721       O726   2.384   1_655  S
Zr721       O727   2.382   1_554  S
Zr722       O723   2.404       .  S
Zr722       O725   2.361       .  S
Zr722       O728   2.383   1_556  S
O723        H731   0.966       .  S
O726        H730   0.961       .  S
O727        H732   0.962       .  S
O745       Zr757   2.392       .  S
O745        C747   1.273   1_554  A
O746       Zr783   2.425       .  S
O746        C747   1.283       .  A
C747       C2389   1.471       .  S
O748       Zr760   2.517       .  S
O748        C750   1.302       .  A
O749       Zr784   2.430       .  S
O749        C750   1.288       .  A
C750       C2329   1.517       .  S
O751       Zr760   2.525       .  S
O751        C753   1.303   1_554  A
O752       Zr783   2.421       .  S
O752        C753   1.285       .  A
C753       C2317   1.521       .  S
O754       Zr757   2.402       .  S
O754        C756   1.280       .  A
O755       Zr784   2.394       .  S
O755        C756   1.282       .  A
C756       C2365   1.440       .  S
Zr757       O758   2.435       .  S
Zr757       O759   2.437       .  S
Zr757       O763   2.357   1_554  S
Zr757       O764   2.343       .  S
Zr757       O787   2.359       .  S
Zr757       O789   2.350   1_554  S
O758        H801   0.990       .  S
O759        H800   0.990       .  S
O759        H804   0.990       .  S
Zr760       O761   2.435       .  S
Zr760       O762   2.435   1_554  S
Zr760       O764   2.379       .  S
Zr760       O763   2.356   1_554  S
Zr760       O788   2.402   1_554  S
Zr760       O790   2.405       .  S
O761        H802   0.987       .  S
O761        H805   0.990       .  S
O762        H795   0.990       .  S
O763       Zr783   2.367       .  S
O764       Zr784   2.389       .  S
O764        H791   0.959       .  S
O765       Zr777   2.423       .  S
O765        C767   1.285   1_556  A
O766       Zr784   2.437       .  S
O766        C767   1.288       .  A
C767       C2377   1.472       .  S
O768       Zr780   2.478       .  S
O768        C770   1.295       .  A
O769       Zr783   2.421       .  S
O769        C770   1.286       .  A
C770       C2341   1.496       .  S
O771       Zr780   2.500       .  S
O771        C773   1.298       .  A
O772       Zr784   2.430       .  S
O772        C773   1.287   1_554  A
C773       C2305   1.503       .  S
O774       Zr777   2.416       .  S
O774        C776   1.283       .  A
O775       Zr783   2.419       .  S
O775        C776   1.284       .  A
C776       C2353   1.457       .  S
Zr777       O778   2.433       .  S
Zr777       O779   2.435       .  S
Zr777       O785   2.359       .  S
Zr777       O786   2.357       .  S
Zr777       O789   2.354       .  S
Zr777       O787   2.364   1_556  S
O778        H798   0.990       .  S
O778        H803   0.990       .  S
O779        H799   0.990       .  S
Zr780       O781   2.436       .  S
Zr780       O782   2.434       .  S
Zr780       O786   2.367       .  S
Zr780       O785   2.370       .  S
Zr780       O790   2.393   1_556  S
Zr780       O788   2.401       .  S
O781        H797   0.990       .  S
O782        H796   0.990       .  S
O782        H806   0.990       .  S
Zr783       O786   2.373       .  S
Zr783       O788   2.404       .  S
Zr783       O789   2.394       .  S
Zr784       O785   2.383   1_554  S
Zr784       O787   2.393       .  S
Zr784       O790   2.392       .  S
O785        H793   0.962       .  S
O788        H792   0.966       .  S
O789        H794   0.966       .  S
O807       Zr819   2.403       .  S
O807        C809   1.281       .  A
O808       Zr845   2.429       .  S
O808        C809   1.287       .  A
C809       C2293   1.469       .  S
O810       Zr822   2.393       .  S
O810        C812   1.277       .  A
O811       Zr846   2.437       .  S
O811        C812   1.288       .  A
C812       C2281   1.480       .  S
O813       Zr822   2.439   1_565  S
O813        C815   1.288       .  A
O814       Zr845   2.396   1_565  S
O814        C815   1.280       .  A
C815       C2356   1.457       .  S
O816       Zr819   2.433       .  S
O816        C818   1.286       .  A
O817       Zr846   2.403       .  S
O817        C818   1.283       .  A
C818       C2269   1.476       .  S
Zr819       O820   2.435       .  S
Zr819       O821   2.432       .  S
Zr819       O825   2.362       .  S
Zr819       O826   2.345       .  S
Zr819       O849   2.344       .  S
Zr819       O851   2.358       .  S
O820        H863   0.990       .  S
O821        H862   0.990       .  S
O821        H866   0.990       .  S
Zr822       O823   2.435       .  S
Zr822       O824   2.432   1_545  S
Zr822       O826   2.365       .  S
Zr822       O825   2.351       .  S
Zr822       O850   2.327   1_545  S
Zr822       O852   2.365       .  S
O823        H864   0.990       .  S
O823        H867   0.990   1_545  S
O824        H857   0.990       .  S
O825       Zr845   2.387       .  S
O826       Zr846   2.391       .  S
O826        H853   0.966       .  S
O827       Zr839   2.483       .  S
O827        C829   1.295       .  A
O828       Zr846   2.437       .  S
O828        C829   1.289       .  A
C829       C2245   1.507       .  S
O830       Zr842   2.498   1_565  S
O830        C832   1.299       .  A
O831       Zr845   2.444   1_565  S
O831        C832   1.292       .  A
C832       C2257   1.514       .  S
O833       Zr842   2.511       .  S
O833        C835   1.299       .  A
O834       Zr846   2.411       .  S
O834        C835   1.282       .  A
C835       C2233   1.500       .  S
O836       Zr839   2.509       .  S
O836        C838   1.297       .  A
O837       Zr845   2.407       .  S
O837        C838   1.281       .  A
C838       C2221   1.511       .  S
Zr839       O840   2.435       .  S
Zr839       O841   2.435       .  S
Zr839       O847   2.408       .  S
Zr839       O848   2.394       .  S
Zr839       O851   2.374       .  S
Zr839       O849   2.367       .  S
O840        H860   0.990       .  S
O840        H865   0.990       .  S
O841        H861   0.989       .  S
Zr842       O843   2.434       .  S
Zr842       O844   2.435   1_545  S
Zr842       O848   2.404       .  S
Zr842       O847   2.399       .  S
Zr842       O852   2.357       .  S
Zr842       O850   2.381   1_545  S
O843        H859   0.990   1_545  S
O844        H858   0.990       .  S
O844        H868   0.990       .  S
Zr845       O848   2.390       .  S
Zr845       O850   2.375   1_545  S
Zr845       O851   2.385       .  S
Zr846       O847   2.403       .  S
Zr846       O849   2.364       .  S
Zr846       O852   2.374       .  S
O847        H855   0.966       .  S
O850        H854   0.962       .  S
O851        H856   0.962       .  S
O869       Zr881   2.489       .  S
O869        C871   1.294       .  A
O870       Zr907   2.430       .  S
O870        C871   1.286       .  A
C871       C2161   1.511       .  S
O872       Zr884   2.419       .  S
O872        C874   1.283       .  A
O873       Zr908   2.424       .  S
O873        C874   1.289   1_554  A
C874       C2212   1.473       .  S
O875       Zr884   2.401       .  S
O875        C877   1.282       .  A
O876       Zr907   2.421       .  S
O876        C877   1.283       .  A
C877       C2272   1.467       .  S
O878       Zr881   2.495       .  S
O878        C880   1.298   1_556  A
O879       Zr908   2.440       .  S
O879        C880   1.290       .  A
C880       C2137   1.501       .  S
Zr881       O882   2.436       .  S
Zr881       O883   2.435       .  S
Zr881       O887   2.359       .  S
Zr881       O888   2.366       .  S
Zr881       O911   2.397   1_556  S
Zr881       O913   2.401       .  S
O882        H925   0.990       .  S
O883        H924   0.990       .  S
O883        H928   0.990       .  S
Zr884       O885   2.430       .  S
Zr884       O886   2.434       .  S
Zr884       O888   2.346       .  S
Zr884       O887   2.351       .  S
Zr884       O912   2.334       .  S
Zr884       O914   2.360       .  S
O885        H926   0.989       .  S
O885        H929   0.990       .  S
O886        H919   0.990       .  S
O887       Zr907   2.370       .  S
O888       Zr908   2.379   1_556  S
O888        H915   0.960       .  S
O889       Zr901   2.506       .  S
O889        C891   1.298       .  A
O890       Zr908   2.421       .  S
O890        C891   1.288       .  A
C891       C2173   1.513       .  S
O892       Zr904   2.448   1_556  S
O892        C894   1.293       .  A
O893       Zr907   2.418       .  S
O893        C894   1.280       .  A
C894       C2197   1.470       .  S
O895       Zr904   2.422       .  S
O895        C897   1.285       .  A
O896       Zr908   2.432       .  S
O896        C897   1.289       .  A
C897       C2188   1.469       .  S
O898       Zr901   2.475       .  S
O898        C900   1.291   1_554  A
O899       Zr907   2.442       .  S
O899        C900   1.287       .  A
C900       C2152   1.500       .  S
Zr901       O902   2.438       .  S
Zr901       O903   2.434       .  S
Zr901       O909   2.369       .  S
Zr901       O910   2.379   1_554  S
Zr901       O913   2.409   1_554  S
Zr901       O911   2.395       .  S
O902        H922   0.989       .  S
O902        H927   0.990       .  S
O903        H923   0.990       .  S
Zr904       O905   2.434       .  S
Zr904       O906   2.436   1_554  S
Zr904       O910   2.344   1_554  S
Zr904       O909   2.366       .  S
Zr904       O914   2.376   1_554  S
Zr904       O912   2.348   1_554  S
O905        H921   0.990       .  S
O906        H920   0.990   1_556  S
O906        H930   0.990   1_556  S
Zr907       O910   2.372       .  S
Zr907       O912   2.394       .  S
Zr907       O913   2.407       .  S
Zr908       O909   2.386       .  S
Zr908       O911   2.393       .  S
Zr908       O914   2.389   1_554  S
O909        H917   0.962       .  S
O912        H916   0.965       .  S
O913        H918   0.966       .  S
O931       Zr943   2.393       .  S
O931        C933   1.272       .  A
O932       Zr969   2.415       .  S
O932        C933   1.282       .  A
C933       C2368   1.459       .  S
O934       Zr946   2.418       .  S
O934        C936   1.278       .  A
O935       Zr970   2.433       .  S
O935        C936   1.284       .  A
C936       C2185   1.482       .  S
O937       Zr946   2.453       .  S
O937        C939   1.291   1_545  A
O938       Zr969   2.360       .  S
O938        C939   1.273       .  A
C939       C2128   1.444       .  S
O940       Zr943   2.385       .  S
O940        C942   1.270   1_565  A
O941       Zr970   2.456       .  S
O941        C942   1.291       .  A
C942       C2113   1.480       .  S
Zr943       O944   2.435       .  S
Zr943       O945   2.440       .  S
Zr943       O949   2.353       .  S
Zr943       O950   2.354   1_565  S
Zr943       O973   2.336   1_565  S
Zr943       O975   2.345       .  S
O944        H987   0.990   1_565  S
O945        H986   0.990       .  S
O945        H990   0.988       .  S
Zr946       O947   2.436       .  S
Zr946       O948   2.434       .  S
Zr946       O950   2.372       .  S
Zr946       O949   2.341   1_545  S
Zr946       O974   2.343       .  S
Zr946       O976   2.365       .  S
O947        H988   0.990       .  S
O947        H991   0.990       .  S
O948        H981   0.990       .  S
O949       Zr969   2.376       .  S
O950       Zr970   2.393       .  S
O950        H977   0.966       .  S
O951       Zr963   2.505       .  S
O951        C953   1.300   1_565  A
O952       Zr970   2.414       .  S
O952        C953   1.283       .  A
C953       C2092   1.509       .  S
O954       Zr966   2.518       .  S
O954        C956   1.302   1_545  A
O955       Zr969   2.411       .  S
O955        C956   1.282       .  A
C956       C2101   1.516       .  S
O957       Zr966   2.513       .  S
O957        C959   1.301       .  A
O958       Zr970   2.403       .  S
O958        C959   1.282       .  A
C959       C2068   1.511       .  S
O960       Zr963   2.529       .  S
O960        C962   1.302       .  A
O961       Zr969   2.408       .  S
O961        C962   1.281       .  A
C962       C2077   1.521       .  S
Zr963       O964   2.435       .  S
Zr963       O965   2.436       .  S
Zr963       O971   2.416   1_565  S
Zr963       O972   2.397       .  S
Zr963       O975   2.378       .  S
Zr963       O973   2.354   1_565  S
O964        H984   0.990       .  S
O964        H989   0.990       .  S
O965        H985   0.990       .  S
Zr966       O967   2.434       .  S
Zr966       O968   2.438       .  S
Zr966       O972   2.406   1_545  S
Zr966       O971   2.408       .  S
Zr966       O976   2.362       .  S
Zr966       O974   2.383       .  S
O967        H983   0.990       .  S
O968        H982   0.990       .  S
O968        H992   0.990       .  S
Zr969       O972   2.380       .  S
Zr969       O974   2.384   1_565  S
Zr969       O975   2.368       .  S
Zr970       O971   2.414       .  S
Zr970       O973   2.351       .  S
Zr970       O976   2.383       .  S
O971        H979   0.966       .  S
O974        H978   0.962       .  S
O975        H980   0.961       .  S
O993      Zr1005   2.445       .  S
O993        C995   1.289   1_556  A
O994      Zr1031   2.412       .  S
O994        C995   1.283       .  A
C995       C2380   1.478       .  S
O996      Zr1008   2.421   1_556  S
O996        C998   1.285       .  A
O997      Zr1032   2.400       .  S
O997        C998   1.281       .  A
C998       C2200   1.450       .  S
O999      Zr1008   2.414       .  S
O999       C1001   1.283       .  A
O1000     Zr1031   2.432       .  S
O1000      C1001   1.290   1_565  A
C1001      C2116   1.471       .  S
O1002     Zr1005   2.439   1_545  S
O1002      C1004   1.282       .  A
O1003     Zr1032   2.402       .  S
O1003      C1004   1.273       .  A
C1004      C2284   1.475       .  S
Zr1005     O1006   2.433   1_565  S
Zr1005     O1007   2.439       .  S
Zr1005     O1011   2.373   1_565  S
Zr1005     O1012   2.343   1_565  S
Zr1005     O1035   2.361   1_565  S
Zr1005     O1037   2.334       .  S
O1006      H1049   0.990       .  S
O1007      H1048   0.990       .  S
O1007      H1052   0.990       .  S
Zr1008     O1009   2.434       .  S
Zr1008     O1010   2.432       .  S
Zr1008     O1012   2.357   1_554  S
Zr1008     O1011   2.370   1_554  S
Zr1008     O1036   2.354       .  S
Zr1008     O1038   2.352   1_554  S
O1009      H1050   0.990   1_554  S
O1009      H1053   0.990       .  S
O1010      H1043   0.990       .  S
O1011     Zr1031   2.388   1_546  S
O1012     Zr1032   2.410       .  S
O1012      H1039   0.964       .  S
O1013     Zr1025   2.515       .  S
O1013      C1015   1.300   1_565  A
O1014     Zr1032   2.409       .  S
O1014      C1015   1.279       .  A
C1015      C2044   1.515       .  S
O1016     Zr1028   2.512       .  S
O1016      C1018   1.299       .  A
O1017     Zr1031   2.412       .  S
O1017      C1018   1.282   1_565  A
C1018      C2056   1.516       .  S
O1019     Zr1028   2.496   1_556  S
O1019      C1021   1.298       .  A
O1020     Zr1032   2.421       .  S
O1020      C1021   1.283       .  A
C1021      C2029   1.500       .  S
O1022     Zr1025   2.502       .  S
O1022      C1024   1.300       .  A
O1023     Zr1031   2.430       .  S
O1023      C1024   1.287   1_554  A
C1024      C2017   1.512       .  S
Zr1025     O1026   2.438       .  S
Zr1025     O1027   2.435       .  S
Zr1025     O1033   2.413   1_565  S
Zr1025     O1034   2.406   1_556  S
Zr1025     O1037   2.386       .  S
Zr1025     O1035   2.354   1_565  S
O1026      H1046   0.989       .  S
O1026      H1051   0.989   1_565  S
O1027      H1047   0.990       .  S
Zr1028     O1029   2.435       .  S
Zr1028     O1030   2.437       .  S
Zr1028     O1034   2.403   1_545  S
Zr1028     O1033   2.402   1_554  S
Zr1028     O1038   2.369   1_554  S
Zr1028     O1036   2.362       .  S
O1029      H1045   0.990       .  S
O1030      H1044   0.990       .  S
O1030      H1054   0.990       .  S
Zr1031     O1034   2.395       .  S
Zr1031     O1036   2.378   1_565  S
Zr1031     O1037   2.387   1_554  S
Zr1032     O1033   2.401       .  S
Zr1032     O1035   2.386       .  S
Zr1032     O1038   2.366       .  S
O1033      H1041   0.966       .  S
O1036      H1040   0.960       .  S
O1037      H1042   0.962       .  S
O1055     Zr1067   2.412       .  S
O1055      C1057   1.283   1_545  A
O1056     Zr1093   2.402       .  S
O1056      C1057   1.281       .  A
C1057      C2125   1.447       .  S
O1058     Zr1070   2.388   1_545  S
O1058      C1060   1.278       .  A
O1059     Zr1094   2.428       .  S
O1059      C1060   1.287       .  A
C1060      C2296   1.475       .  S
O1061     Zr1070   2.392       .  S
O1061      C1063   1.280   1_556  A
O1062     Zr1093   2.419       .  S
O1062      C1063   1.284       .  A
C1063      C2392   1.457       .  S
O1064     Zr1067   2.388       .  S
O1064      C1066   1.278   1_554  A
O1065     Zr1094   2.447       .  S
O1065      C1066   1.292       .  A
C1066      C2209   1.477       .  S
Zr1067     O1068   2.434       .  S
Zr1067     O1069   2.428       .  S
Zr1067     O1073   2.354   1_545  S
Zr1067     O1074   2.358   1_554  S
Zr1067     O1097   2.357       .  S
Zr1067     O1099   2.334       .  S
O1068      H1111   0.990       .  S
O1069      H1110   0.989       .  S
O1069      H1114   0.989       .  S
Zr1070     O1071   2.434       .  S
Zr1070     O1072   2.434       .  S
Zr1070     O1074   2.345   1_565  S
Zr1070     O1073   2.348   1_556  S
Zr1070     O1098   2.347       .  S
Zr1070     O1100   2.354   1_565  S
O1071      H1112   0.990   1_565  S
O1071      H1115   0.990       .  S
O1072      H1105   0.991       .  S
O1073     Zr1093   2.391       .  S
O1074     Zr1094   2.386       .  S
O1074      H1101   0.966       .  S
O1075     Zr1087   2.513       .  S
O1075      C1077   1.299   1_554  A
O1076     Zr1094   2.399       .  S
O1076      C1077   1.281       .  A
C1077      C1972   1.506       .  S
O1078     Zr1090   2.521       .  S
O1078      C1080   1.301   1_556  A
O1079     Zr1093   2.422       .  S
O1079      C1080   1.285       .  A
C1080      C1981   1.520   1_554  S
O1081     Zr1090   2.504   1_545  S
O1081      C1083   1.299       .  A
O1082     Zr1094   2.429       .  S
O1082      C1083   1.288       .  A
C1083      C1993   1.515       .  S
O1084     Zr1087   2.511       .  S
O1084      C1086   1.300       .  A
O1085     Zr1093   2.428       .  S
O1085      C1086   1.288   1_565  A
C1086      C2008   1.516       .  S
Zr1087     O1088   2.437       .  S
Zr1087     O1089   2.434       .  S
Zr1087     O1095   2.407   1_554  S
Zr1087     O1096   2.408       .  S
Zr1087     O1099   2.380       .  S
Zr1087     O1097   2.362       .  S
O1088      H1108   0.989       .  S
O1088      H1113   0.989       .  S
O1089      H1109   0.990       .  S
Zr1090     O1091   2.434   1_565  S
Zr1090     O1092   2.431       .  S
Zr1090     O1096   2.399   1_566  S
Zr1090     O1095   2.403   1_565  S
Zr1090     O1100   2.366   1_565  S
Zr1090     O1098   2.369       .  S
O1091      H1107   0.990       .  S
O1092      H1106   0.988       .  S
O1092      H1116   0.990       .  S
Zr1093     O1096   2.393   1_565  S
Zr1093     O1098   2.380   1_554  S
Zr1093     O1099   2.384   1_565  S
Zr1094     O1095   2.407       .  S
Zr1094     O1097   2.373   1_556  S
Zr1094     O1100   2.364       .  S
O1095      H1103   0.966       .  S
O1098      H1102   0.960       .  S
O1099      H1104   0.961       .  S
O1117     Zr1129   2.397       .  S
O1117      C1119   1.282       .  A
O1118     Zr1155   2.435       .  S
O1118      C1119   1.289   1_655  A
C1119      C1960   1.477       .  S
O1120     Zr1132   2.377       .  S
O1120      C1122   1.277   1_655  A
O1121     Zr1156   2.454       .  S
O1121      C1122   1.292       .  A
C1122      C1945   1.476       .  S
O1123     Zr1132   2.415       .  S
O1123      C1125   1.274       .  A
O1124     Zr1155   2.409       .  S
O1124      C1125   1.276       .  A
C1125      C1924   1.478       .  S
O1126     Zr1129   2.412       .  S
O1126      C1128   1.284       .  A
O1127     Zr1156   2.413       .  S
O1127      C1128   1.283       .  A
C1128      C1933   1.457       .  S
Zr1129     O1130   2.435       .  S
Zr1129     O1131   2.436       .  S
Zr1129     O1135   2.349       .  S
Zr1129     O1136   2.358       .  S
Zr1129     O1159   2.337       .  S
Zr1129     O1161   2.364       .  S
O1130      H1173   0.990       .  S
O1131      H1172   0.989       .  S
O1131      H1176   0.990       .  S
Zr1132     O1133   2.438       .  S
Zr1132     O1134   2.439       .  S
Zr1132     O1136   2.351   1_655  S
Zr1132     O1135   2.352   1_655  S
Zr1132     O1160   2.345       .  S
Zr1132     O1162   2.362   1_655  S
O1133      H1174   0.990   1_655  S
O1133      H1177   0.990       .  S
O1134      H1167   0.989       .  S
O1135     Zr1155   2.402   1_455  S
O1136     Zr1156   2.392       .  S
O1136      H1163   0.966       .  S
O1137     Zr1149   2.492       .  S
O1137      C1139   1.298       .  A
O1138     Zr1156   2.451       .  S
O1138      C1139   1.292       .  A
C1139      C1876   1.512       .  S
O1140     Zr1152   2.472       .  S
O1140      C1142   1.294       .  A
O1141     Zr1155   2.465       .  S
O1141      C1142   1.294       .  A
C1142      C1909   1.496       .  S
O1143     Zr1152   2.499       .  S
O1143      C1145   1.296   1_655  A
O1144     Zr1156   2.411       .  S
O1144      C1145   1.281       .  A
C1145      C1885   1.514       .  S
O1146     Zr1149   2.517       .  S
O1146      C1148   1.301       .  A
O1147     Zr1155   2.423       .  S
O1147      C1148   1.287   1_655  A
C1148      C1897   1.508       .  S
Zr1149     O1150   2.435       .  S
Zr1149     O1151   2.437       .  S
Zr1149     O1157   2.405       .  S
Zr1149     O1158   2.397       .  S
Zr1149     O1161   2.361       .  S
Zr1149     O1159   2.363       .  S
O1150      H1170   0.990       .  S
O1150      H1175   0.990       .  S
O1151      H1171   0.989       .  S
Zr1152     O1153   2.434       .  S
Zr1152     O1154   2.438       .  S
Zr1152     O1158   2.405   1_655  S
Zr1152     O1157   2.400   1_655  S
Zr1152     O1162   2.357   1_655  S
Zr1152     O1160   2.391       .  S
O1153      H1169   0.990       .  S
O1154      H1168   0.990       .  S
O1154      H1178   0.990       .  S
Zr1155     O1158   2.396   1_655  S
Zr1155     O1160   2.394       .  S
Zr1155     O1161   2.392   1_655  S
Zr1156     O1157   2.411       .  S
Zr1156     O1159   2.365       .  S
Zr1156     O1162   2.365       .  S
O1157      H1165   0.966       .  S
O1160      H1164   0.961       .  S
O1161      H1166   0.961       .  S
O1179     Zr1191   2.472       .  S
O1179      C1181   1.296   1_545  A
O1180     Zr1217   2.377       .  S
O1180      C1181   1.276       .  A
C1181      C1852   1.470       .  S
O1182     Zr1194   2.424   1_545  S
O1182      C1184   1.287       .  A
O1183     Zr1218   2.398       .  S
O1183      C1184   1.279       .  A
C1184      C1861   1.465       .  S
O1185     Zr1194   2.394       .  S
O1185      C1187   1.279       .  A
O1186     Zr1217   2.428       .  S
O1186      C1187   1.285       .  A
C1187      C1921   1.450       .  S
O1188     Zr1191   2.434       .  S
O1188      C1190   1.289       .  A
O1189     Zr1218   2.386       .  S
O1189      C1190   1.278       .  A
C1190      C1837   1.450       .  S
Zr1191     O1192   2.434       .  S
Zr1191     O1193   2.435       .  S
Zr1191     O1197   2.358   1_545  S
Zr1191     O1198   2.365       .  S
Zr1191     O1221   2.374       .  S
Zr1191     O1223   2.338       .  S
O1192      H1235   0.990       .  S
O1193      H1234   0.990       .  S
O1193      H1238   0.990       .  S
Zr1194     O1195   2.437       .  S
Zr1194     O1196   2.434       .  S
Zr1194     O1198   2.330   1_565  S
Zr1194     O1197   2.366       .  S
Zr1194     O1222   2.348       .  S
Zr1194     O1224   2.343   1_565  S
O1195      H1236   0.990   1_565  S
O1195      H1239   0.990       .  S
O1196      H1229   0.990       .  S
O1197     Zr1217   2.388       .  S
O1198     Zr1218   2.392       .  S
O1198      H1225   0.965       .  S
O1199     Zr1211   2.514       .  S
O1199      C1201   1.299       .  A
O1200     Zr1218   2.412       .  S
O1200      C1201   1.283       .  A
C1201      C1792   1.518       .  S
O1202     Zr1214   2.503       .  S
O1202      C1204   1.298       .  A
O1203     Zr1217   2.405       .  S
O1203      C1204   1.281       .  A
C1204      C1825   1.500       .  S
O1205     Zr1214   2.512   1_545  S
O1205      C1207   1.299       .  A
O1206     Zr1218   2.424       .  S
O1206      C1207   1.285       .  A
C1207      C1813   1.515       .  S
O1208     Zr1211   2.499       .  S
O1208      C1210   1.298       .  A
O1209     Zr1217   2.438       .  S
O1209      C1210   1.288   1_565  A
C1210      C1804   1.502       .  S
Zr1211     O1212   2.438       .  S
Zr1211     O1213   2.434       .  S
Zr1211     O1219   2.404       .  S
Zr1211     O1220   2.412   1_545  S
Zr1211     O1223   2.374       .  S
Zr1211     O1221   2.366       .  S
O1212      H1232   0.989       .  S
O1212      H1237   0.989       .  S
O1213      H1233   0.989       .  S
Zr1214     O1215   2.434       .  S
Zr1214     O1216   2.437       .  S
Zr1214     O1220   2.407       .  S
Zr1214     O1219   2.412   1_565  S
Zr1214     O1224   2.356   1_565  S
Zr1214     O1222   2.382       .  S
O1215      H1231   0.990       .  S
O1216      H1230   0.990       .  S
O1216      H1240   0.990       .  S
Zr1217     O1220   2.389       .  S
Zr1217     O1222   2.383       .  S
Zr1217     O1223   2.385   1_565  S
Zr1218     O1219   2.389       .  S
Zr1218     O1221   2.376       .  S
Zr1218     O1224   2.366       .  S
O1219      H1227   0.966       .  S
O1222      H1226   0.963       .  S
O1223      H1228   0.960       .  S
O1241     Zr1253   2.450       .  S
O1241      C1243   1.289       .  A
O1242     Zr1279   2.390       .  S
O1242      C1243   1.279       .  A
C1243      C1936   1.459       .  S
O1244     Zr1256   2.404       .  S
O1244      C1246   1.274       .  A
O1245     Zr1280   2.437       .  S
O1245      C1246   1.284       .  A
C1246      C1753   1.471       .  S
O1247     Zr1256   2.400       .  S
O1247      C1249   1.280       .  A
O1248     Zr1279   2.404       .  S
O1248      C1249   1.282   1_565  A
C1249      C1768   1.443       .  S
O1250     Zr1253   2.413   1_545  S
O1250      C1252   1.283       .  A
O1251     Zr1280   2.408       .  S
O1251      C1252   1.285       .  A
C1252      C1780   1.463       .  S
Zr1253     O1254   2.434   1_565  S
Zr1253     O1255   2.436       .  S
Zr1253     O1259   2.357   1_565  S
Zr1253     O1260   2.362   1_565  S
Zr1253     O1283   2.367   1_565  S
Zr1253     O1285   2.340       .  S
O1254      H1297   0.990   1_545  S
O1255      H1296   0.990       .  S
O1255      H1300   0.990       .  S
Zr1256     O1257   2.442       .  S
Zr1256     O1258   2.440       .  S
Zr1256     O1260   2.362       .  S
Zr1256     O1259   2.359       .  S
Zr1256     O1284   2.351       .  S
Zr1256     O1286   2.350       .  S
O1257      H1298   0.989       .  S
O1257      H1301   0.990       .  S
O1258      H1291   0.990       .  S
O1259     Zr1279   2.384   1_545  S
O1260     Zr1280   2.399       .  S
O1260      H1287   0.966       .  S
O1261     Zr1273   2.513   1_545  S
O1261      C1263   1.300       .  A
O1262     Zr1280   2.421       .  S
O1262      C1263   1.287       .  A
C1263      C1705   1.518       .  S
O1264     Zr1276   2.522       .  S
O1264      C1266   1.299       .  A
O1265     Zr1279   2.410       .  S
O1265      C1266   1.280   1_565  A
C1266      C1741   1.517       .  S
O1267     Zr1276   2.503       .  S
O1267      C1269   1.299       .  A
O1268     Zr1280   2.430       .  S
O1268      C1269   1.288       .  A
C1269      C1717   1.513       .  S
O1270     Zr1273   2.510       .  S
O1270      C1272   1.300       .  A
O1271     Zr1279   2.419       .  S
O1271      C1272   1.284       .  A
C1272      C1729   1.515       .  S
Zr1273     O1274   2.438   1_565  S
Zr1273     O1275   2.432       .  S
Zr1273     O1281   2.413   1_565  S
Zr1273     O1282   2.405   1_565  S
Zr1273     O1285   2.380       .  S
Zr1273     O1283   2.360   1_565  S
O1274      H1294   0.990       .  S
O1274      H1299   0.989       .  S
O1275      H1295   0.990       .  S
Zr1276     O1277   2.434       .  S
Zr1276     O1278   2.437       .  S
Zr1276     O1282   2.402       .  S
Zr1276     O1281   2.413       .  S
Zr1276     O1286   2.358       .  S
Zr1276     O1284   2.378       .  S
O1277      H1293   0.990       .  S
O1278      H1292   0.989       .  S
O1278      H1302   0.990       .  S
Zr1279     O1282   2.386   1_565  S
Zr1279     O1284   2.380   1_565  S
Zr1279     O1285   2.384       .  S
Zr1280     O1281   2.405       .  S
Zr1280     O1283   2.376       .  S
Zr1280     O1286   2.365       .  S
O1281      H1289   0.966       .  S
O1284      H1288   0.961       .  S
O1285      H1290   0.962       .  S
O1303     Zr1315   2.498       .  S
O1303      C1305   1.297       .  A
O1304     Zr1341   2.421       .  S
O1304      C1305   1.285       .  A
C1305      C1645   1.506       .  S
O1306     Zr1318   2.444   1_455  S
O1306      C1308   1.290       .  A
O1307     Zr1342   2.398       .  S
O1307      C1308   1.280       .  A
C1308      C1681   1.468       .  S
O1309     Zr1318   2.412       .  S
O1309      C1311   1.286       .  A
O1310     Zr1341   2.408       .  S
O1310      C1311   1.281       .  A
C1311      C1840   1.453       .  S
O1312     Zr1315   2.487       .  S
O1312      C1314   1.296   1_655  A
O1313     Zr1342   2.439       .  S
O1313      C1314   1.289       .  A
C1314      C1669   1.497       .  S
Zr1315     O1316   2.436       .  S
Zr1315     O1317   2.435       .  S
Zr1315     O1321   2.365       .  S
Zr1315     O1322   2.369       .  S
Zr1315     O1345   2.404   1_655  S
Zr1315     O1347   2.396       .  S
O1316      H1359   0.990       .  S
O1317      H1358   0.990       .  S
O1317      H1362   0.990       .  S
Zr1318     O1319   2.434       .  S
Zr1318     O1320   2.435       .  S
Zr1318     O1322   2.339       .  S
Zr1318     O1321   2.367       .  S
Zr1318     O1346   2.361       .  S
Zr1318     O1348   2.358   1_655  S
O1319      H1360   0.990       .  S
O1319      H1363   0.990       .  S
O1320      H1353   0.990       .  S
O1321     Zr1341   2.376       .  S
O1322     Zr1342   2.381   1_655  S
O1322      H1349   0.961       .  S
O1323     Zr1335   2.509       .  S
O1323      C1325   1.300       .  A
O1324     Zr1342   2.400       .  S
O1324      C1325   1.280       .  A
C1325      C1657   1.507       .  S
O1326     Zr1338   2.415       .  S
O1326      C1328   1.285   1_455  A
O1327     Zr1341   2.396       .  S
O1327      C1328   1.280       .  A
C1328      C1693   1.462       .  S
O1329     Zr1338   2.389       .  S
O1329      C1331   1.278       .  A
O1330     Zr1342   2.446       .  S
O1330      C1331   1.291       .  A
C1331      C1756   1.460       .  S
O1332     Zr1335   2.512       .  S
O1332      C1334   1.299       .  A
O1333     Zr1341   2.423       .  S
O1333      C1334   1.284   1_655  A
C1334      C1633   1.517       .  S
Zr1335     O1336   2.437       .  S
Zr1335     O1337   2.434       .  S
Zr1335     O1343   2.381       .  S
Zr1335     O1344   2.360       .  S
Zr1335     O1347   2.412   1_455  S
Zr1335     O1345   2.401       .  S
O1336      H1356   0.990       .  S
O1336      H1361   0.990       .  S
O1337      H1357   0.990       .  S
Zr1338     O1339   2.431       .  S
Zr1338     O1340   2.435       .  S
Zr1338     O1344   2.342       .  S
Zr1338     O1343   2.345       .  S
Zr1338     O1348   2.370       .  S
Zr1338     O1346   2.328   1_455  S
O1339      H1355   0.990       .  S
O1340      H1354   0.990       .  S
O1340      H1364   0.990       .  S
Zr1341     O1344   2.371   1_655  S
Zr1341     O1346   2.392       .  S
Zr1341     O1347   2.395       .  S
Zr1342     O1343   2.383       .  S
Zr1342     O1345   2.395       .  S
Zr1342     O1348   2.384       .  S
O1343      H1351   0.963       .  S
O1346      H1350   0.965       .  S
O1347      H1352   0.966       .  S
O1365     Zr1377   2.495       .  S
O1365      C1367   1.297       .  A
O1366     Zr1403   2.420       .  S
O1366      C1367   1.283   1_655  A
C1367      C1600   1.511       .  S
O1368     Zr1380   2.391   1_545  S
O1368      C1370   1.275       .  A
O1369     Zr1404   2.418       .  S
O1369      C1370   1.285       .  A
C1370      C1765   1.469       .  S
O1371     Zr1380   2.371       .  S
O1371      C1373   1.275   1_455  A
O1372     Zr1403   2.447       .  S
O1372      C1373   1.290       .  A
C1373      C1948   1.470       .  S
O1374     Zr1377   2.512       .  S
O1374      C1376   1.301   1_565  A
O1375     Zr1404   2.412       .  S
O1375      C1376   1.284       .  A
C1376      C1585   1.514       .  S
Zr1377     O1378   2.436       .  S
Zr1377     O1379   2.434       .  S
Zr1377     O1383   2.360       .  S
Zr1377     O1384   2.375       .  S
Zr1377     O1407   2.395   1_565  S
Zr1377     O1409   2.408   1_455  S
O1378      H1421   0.990       .  S
O1379      H1420   0.990       .  S
O1379      H1424   0.990       .  S
Zr1380     O1381   2.440       .  S
Zr1380     O1382   2.437       .  S
Zr1380     O1384   2.346       .  S
Zr1380     O1383   2.342       .  S
Zr1380     O1408   2.350   1_455  S
Zr1380     O1410   2.353   1_565  S
O1381      H1422   0.989       .  S
O1381      H1425   0.989       .  S
O1382      H1415   0.990       .  S
O1383     Zr1403   2.358   1_455  S
O1384     Zr1404   2.376   1_565  S
O1384      H1411   0.963       .  S
O1385     Zr1397   2.507       .  S
O1385      C1387   1.299   1_655  A
O1386     Zr1404   2.412       .  S
O1386      C1387   1.283       .  A
C1387      C1624   1.510       .  S
O1388     Zr1400   2.394       .  S
O1388      C1390   1.280   1_545  A
O1389     Zr1403   2.439       .  S
O1389      C1390   1.289       .  A
C1390      C1849   1.471       .  S
O1391     Zr1400   2.428       .  S
O1391      C1393   1.286   1_655  A
O1392     Zr1404   2.409       .  S
O1392      C1393   1.283       .  A
C1393      C1684   1.467       .  S
O1394     Zr1397   2.496       .  S
O1394      C1396   1.297   1_545  A
O1395     Zr1403   2.413       .  S
O1395      C1396   1.283       .  A
C1396      C1609   1.507       .  S
Zr1397     O1398   2.438       .  S
Zr1397     O1399   2.435       .  S
Zr1397     O1405   2.374       .  S
Zr1397     O1406   2.366       .  S
Zr1397     O1409   2.402   1_545  S
Zr1397     O1407   2.399   1_655  S
O1398      H1418   0.990       .  S
O1398      H1423   0.990       .  S
O1399      H1419   0.990   1_655  S
Zr1400     O1401   2.427       .  S
Zr1400     O1402   2.434       .  S
Zr1400     O1406   2.356       .  S
Zr1400     O1405   2.346       .  S
Zr1400     O1410   2.343   1_655  S
Zr1400     O1408   2.361   1_545  S
O1401      H1417   0.990       .  S
O1402      H1416   0.990       .  S
O1402      H1426   0.990       .  S
Zr1403     O1406   2.375   1_565  S
Zr1403     O1408   2.389       .  S
Zr1403     O1409   2.412       .  S
Zr1404     O1405   2.381   1_455  S
Zr1404     O1407   2.389       .  S
Zr1404     O1410   2.379       .  S
O1405      H1413   0.962       .  S
O1408      H1412   0.966       .  S
O1409      H1414   0.966       .  S
O1427     Zr1439   2.412   1_465  S
O1427      C1429   1.282       .  A
O1428     Zr1465   2.409   1_565  S
O1428      C1429   1.283       .  A
C1429      C1957   1.460       .  S
O1430     Zr1442   2.410       .  S
O1430      C1432   1.285   1_455  A
O1431     Zr1466   2.406       .  S
O1431      C1432   1.281       .  A
C1432      C1696   1.462       .  S
O1433     Zr1442   2.417       .  S
O1433      C1435   1.284       .  A
O1434     Zr1465   2.437       .  S
O1434      C1435   1.290       .  A
C1435      C1777   1.480       .  S
O1436     Zr1439   2.394       .  S
O1436      C1438   1.279       .  A
O1437     Zr1466   2.431       .  S
O1437      C1438   1.287       .  A
C1438      C1864   1.467       .  S
Zr1439     O1440   2.434       .  S
Zr1439     O1441   2.436   1_545  S
Zr1439     O1445   2.356   1_655  S
Zr1439     O1446   2.349       .  S
Zr1439     O1469   2.364       .  S
Zr1439     O1471   2.346   1_645  S
O1440      H1483   0.990       .  S
O1441      H1482   0.990       .  S
O1441      H1486   0.990       .  S
Zr1442     O1443   2.434       .  S
Zr1442     O1444   2.426       .  S
Zr1442     O1446   2.356   1_455  S
Zr1442     O1445   2.362       .  S
Zr1442     O1470   2.357       .  S
Zr1442     O1472   2.341       .  S
O1443      H1484   0.990       .  S
O1443      H1487   0.990       .  S
O1444      H1477   0.990       .  S
O1445     Zr1465   2.388       .  S
O1446     Zr1466   2.392       .  S
O1446      H1473   0.966       .  S
O1447     Zr1459   2.499       .  S
O1447      C1449   1.296       .  A
O1448     Zr1466   2.410       .  S
O1448      C1449   1.281       .  A
C1449      C1540   1.509       .  S
O1450     Zr1462   2.528       .  S
O1450      C1452   1.302       .  A
O1451     Zr1465   2.400       .  S
O1451      C1452   1.282       .  A
C1452      C1564   1.516       .  S
O1453     Zr1462   2.514       .  S
O1453      C1455   1.300       .  A
O1454     Zr1466   2.428       .  S
O1454      C1455   1.286   1_655  A
C1455      C1549   1.516       .  S
O1456     Zr1459   2.502   1_465  S
O1456      C1458   1.299       .  A
O1457     Zr1465   2.430   1_565  S
O1457      C1458   1.287       .  A
C1458      C1573   1.501       .  S
Zr1459     O1460   2.439   1_655  S
Zr1459     O1461   2.434   1_545  S
Zr1459     O1467   2.405       .  S
Zr1459     O1468   2.400   1_655  S
Zr1459     O1471   2.372   1_645  S
Zr1459     O1469   2.368       .  S
O1460      H1480   0.989       .  S
O1460      H1485   0.989   1_455  S
O1461      H1481   0.989       .  S
Zr1462     O1463   2.434       .  S
Zr1462     O1464   2.436       .  S
Zr1462     O1468   2.401       .  S
Zr1462     O1467   2.411   1_455  S
Zr1462     O1472   2.358       .  S
Zr1462     O1470   2.367       .  S
O1463      H1479   0.990       .  S
O1464      H1478   0.990       .  S
O1464      H1488   0.990       .  S
Zr1465     O1468   2.394       .  S
Zr1465     O1470   2.383       .  S
Zr1465     O1471   2.383   1_545  S
Zr1466     O1467   2.406       .  S
Zr1466     O1469   2.372       .  S
Zr1466     O1472   2.366   1_655  S
O1467      H1475   0.966       .  S
O1470      H1474   0.961       .  S
O1471      H1476   0.961       .  S
C1489      C1490   1.371       .  D
C1489      C1621   1.503       .  S
C1489      C1672   1.508       .  S
C1490      C2485   1.503       .  S
C1490      C2536   1.501       .  S
C1491      C1492   1.372   1_545  D
C1491      C2005   1.514       .  S
C1491      C2104   1.509       .  S
C1492      C1612   1.507       .  S
C1492      C1801   1.510       .  S
C1493      C1494   1.373       .  D
C1493      C2440   1.512       .  S
C1493      C2521   1.514       .  S
C1494      C1597   1.505       .  S
C1494      C1888   1.508       .  S
C1495      C1496   1.372       .  D
C1495      C2053   1.505       .  S
C1495      C2089   1.500       .  S
C1496      C1588   1.508       .  S
C1496      C1744   1.517       .  S
C1497      C1498   1.370       .  D
C1497      C2872   1.508       .  S
C1497      C3196   1.504       .  S
C1498      C1660   1.506       .  S
C1498      C1720   1.512       .  S
C1499      C1500   1.378       .  D
C1499      C2968   1.526       .  S
C1499      C3208   1.512       .  S
C1500      C1648   1.513       .  S
C1500      C1789   1.513       .  S
C1501      C1502   1.373       .  D
C1501      C1732   1.510       .  S
C1501      C1873   1.506       .  S
C1502      C2860   1.512       .  S
C1502      C3025   1.514       .  S
C1503      C1504   1.384       .  D
C1503      C2041   1.514       .  S
C1503      C2236   1.527       .  S
C1504      C1561   1.516       .  S
C1504      C1708   1.519       .  S
C1505      C1506   1.381       .  D
C1505      C2476   1.527       .  S
C1505      C2608   1.525       .  S
C1506      C2032   1.510       .  S
C1506      C2149   1.507       .  S
C1507      C1508   1.374       .  D
C1507      C2413   1.509       .  S
C1507      C2596   1.501       .  S
C1508      C2020   1.503       .  S
C1508      C2308   1.517       .  S
C1509      C1510   1.374       .  D
C1509      C3040   1.512       .  S
C1509      C3124   1.514       .  S
C1510      C2080   1.517       .  S
C1510      C2332   1.515       .  S
C1511      C1512   1.382       .  D
C1511      C3112   1.530       .  S
C1511      C3184   1.514       .  S
C1512      C2065   1.509       .  S
C1512      C2176   1.511       .  S
C1513      C1514   1.369       .  D
C1513      C2917   1.506       .  S
C1513      C3172   1.508       .  S
C1514      C2164   1.510       .  S
C1514      C2248   1.510       .  S
C1515      C1516   1.376       .  D
C1515      C1552   1.516       .  S
C1515      C1636   1.514       .  S
C1516      C2461   1.517       .  S
C1516      C2665   1.508       .  S
C1517      C1518   1.378       .  D
C1517      C2452   1.517       .  S
C1517      C2740   1.511       .  S
C1518      C1969   1.512       .  S
C1518      C2140   1.511       .  S
C1519      C1520   1.368       .  D
C1519      C2848   1.496       .  S
C1519      C3097   1.507       .  S
C1520      C2509   1.512       .  S
C1520      C2584   1.500       .  S
C1521      C1522   1.375       .  D
C1521      C2980   1.507       .  S
C1521      C3088   1.506       .  S
C1522      C2500   1.512       .  S
C1522      C2764   1.511       .  S
C1523      C1524   1.386       .  D
C1523      C2836   1.545       .  S
C1523      C2908   1.525       .  S
C1524      C2572   1.506       .  S
C1524      C2656   1.520       .  S
C1525      C1526   1.376       .  D
C1525      C2428   1.517       .  S
C1525      C2680   1.507       .  S
C1526      C1576   1.507       .  S
C1526      C1900   1.511       .  S
C1527      C1528   1.372       .  D
C1527      C1996   1.510       .  S
C1527      C2224   1.506       .  S
C1528      C1537   1.509       .  S
C1528      C1816   1.513       .  S
C1529      C1530   1.374       .  D
C1529      C2401   1.513       .  S
C1529      C2752   1.516       .  S
C1530      C1984   1.517       .  S
C1530      C2320   1.514       .  S
C1531      C1532   1.371       .  D
C1531      C2896   1.506       .  S
C1531      C2956   1.509       .  S
C1532      C2692   1.508       .  S
C1532      C2776   1.505       .  S
C1533      C1534   1.373       .  D
C1533      C1828   1.508       .  S
C1533      C1912   1.513       .  S
C1534      C2944   1.503       .  S
C1534      C3001   1.512       .  S
C1535      C1536   1.375       .  D
C1535      C2884   1.517       .  S
C1535      C3013   1.509       .  S
C1536      C2260   1.518       .  S
C1536      C2344   1.502       .  S
C1537      C1538   1.406       .  A
C1537      C1542   1.413       .  A
C1538      C1539   1.412       .  A
C1538      H1543   1.085   1_545  S
C1539      C1540   1.418       .  A
C1539      C1546   1.443   1_545  S
C1540      C1541   1.410       .  A
C1541      C1542   1.405       .  A
C1541      H1544   1.084       .  S
C1542      C1545   1.441       .  S
C1545      N1547   1.157       .  T
C1546      N1548   1.157       .  T
C1549      C1550   1.411   1_455  A
C1549      C1554   1.422       .  A
C1550      C1551   1.407       .  A
C1550      H1555   1.084       .  S
C1551      C1552   1.415       .  A
C1551      C1558   1.441       .  S
C1552      C1553   1.408   1_655  A
C1553      C1554   1.415       .  A
C1553      H1556   1.084       .  S
C1554      C1557   1.442       .  S
C1557      N1559   1.157       .  T
C1558      N1560   1.157       .  T
C1561      C1562   1.410       .  A
C1561      C1566   1.406       .  A
C1562      C1563   1.413       .  A
C1562      H1567   1.083       .  S
C1563      C1564   1.418       .  A
C1563      C1570   1.441       .  S
C1564      C1565   1.418       .  A
C1565      C1566   1.405       .  A
C1565      H1568   1.084   1_545  S
C1566      C1569   1.443   1_545  S
C1569      N1571   1.157       .  T
C1570      N1572   1.157       .  T
C1573      C1574   1.408       .  A
C1573      C1578   1.420       .  A
C1574      C1575   1.410       .  A
C1574      H1579   1.084       .  S
C1575      C1576   1.414       .  A
C1575      C1582   1.442       .  S
C1576      C1577   1.403       .  A
C1577      C1578   1.407       .  A
C1577      H1580   1.084   1_455  S
C1578      C1581   1.444   1_455  S
C1581      N1583   1.157       .  T
C1582      N1584   1.157       .  T
C1585      C1586   1.410   1_545  A
C1585      C1590   1.425       .  A
C1586      C1587   1.412       .  A
C1586      H1591   1.084       .  S
C1587      C1588   1.417   1_565  A
C1587      C1594   1.442       .  S
C1588      C1589   1.397       .  A
C1589      C1590   1.404       .  A
C1589      H1592   1.085       .  S
C1590      C1593   1.440       .  S
C1593      N1595   1.156       .  T
C1594      N1596   1.157       .  T
C1597      C1598   1.401   1_455  A
C1597      C1602   1.413       .  A
C1598      C1599   1.405       .  A
C1598      H1603   1.084       .  S
C1599      C1600   1.425   1_655  A
C1599      C1606   1.444       .  S
C1600      C1601   1.411       .  A
C1601      C1602   1.409       .  A
C1601      H1604   1.084       .  S
C1602      C1605   1.441       .  S
C1605      N1607   1.157       .  T
C1606      N1608   1.157       .  T
C1609      C1610   1.411       .  A
C1609      C1614   1.418   1_565  A
C1610      C1611   1.403       .  A
C1610      H1615   1.084       .  S
C1611      C1612   1.410       .  A
C1611      C1618   1.440       .  S
C1612      C1613   1.406   1_565  A
C1613      C1614   1.408       .  A
C1613      H1616   1.084       .  S
C1614      C1617   1.443       .  S
C1617      N1619   1.157       .  T
C1618      N1620   1.157       .  T
C1621      C1622   1.395       .  A
C1621      C1626   1.416   1_455  A
C1622      C1623   1.399       .  A
C1622      H1627   1.085       .  S
C1623      C1624   1.427       .  A
C1623      C1630   1.441       .  S
C1624      C1625   1.411   1_455  A
C1625      C1626   1.410       .  A
C1625      H1628   1.084       .  S
C1626      C1629   1.442       .  S
C1629      N1631   1.157       .  T
C1630      N1632   1.156       .  T
C1633      C1634   1.412   1_455  A
C1633      C1638   1.421       .  A
C1634      C1635   1.405       .  A
C1634      H1639   1.084       .  S
C1635      C1636   1.411       .  A
C1635      C1642   1.441       .  S
C1636      C1637   1.408   1_655  A
C1637      C1638   1.416       .  A
C1637      H1640   1.084       .  S
C1638      C1641   1.442       .  S
C1641      N1643   1.157       .  T
C1642      N1644   1.157       .  T
C1645      C1646   1.407       .  A
C1645      C1650   1.420       .  A
C1646      C1647   1.407       .  A
C1646      H1651   1.085       .  S
C1647      C1648   1.416       .  A
C1647      C1654   1.443       .  S
C1648      C1649   1.406       .  A
C1649      C1650   1.410       .  A
C1649      H1652   1.084       .  S
C1650      C1653   1.443       .  S
C1653      N1655   1.157       .  T
C1654      N1656   1.157       .  T
C1657      C1658   1.407       .  A
C1657      C1662   1.425       .  A
C1658      C1659   1.406       .  A
C1658      H1663   1.084       .  S
C1659      C1660   1.416       .  A
C1659      C1666   1.440       .  S
C1660      C1661   1.401       .  A
C1661      C1662   1.405       .  A
C1661      H1664   1.084       .  S
C1662      C1665   1.444       .  S
C1665      N1667   1.157       .  T
C1666      N1668   1.157       .  T
C1669      C1670   1.409   1_455  A
C1669      C1674   1.414       .  A
C1670      C1671   1.406       .  A
C1670      H1675   1.085       .  S
C1671      C1672   1.410   1_655  A
C1671      C1678   1.442       .  S
C1672      C1673   1.408       .  A
C1673      C1674   1.408       .  A
C1673      H1676   1.084       .  S
C1674      C1677   1.442       .  S
C1677      N1679   1.157       .  T
C1678      N1680   1.157       .  T
C1681      C1682   1.400       .  A
C1681      C1686   1.412       .  A
C1682      C1683   1.387       .  A
C1682      H1687   1.085   1_455  S
C1683      C1684   1.409       .  A
C1683      C1690   1.444   1_455  S
C1684      C1685   1.403       .  A
C1685      C1686   1.399       .  A
C1685      H1688   1.084       .  S
C1686      C1689   1.442       .  S
C1689      N1691   1.157       .  T
C1690      N1692   1.157       .  T
C1693      C1694   1.406       .  A
C1693      C1698   1.407   1_655  A
C1694      C1695   1.401       .  A
C1694      H1699   1.085       .  S
C1695      C1696   1.407       .  A
C1695      C1702   1.440       .  S
C1696      C1697   1.399   1_655  A
C1697      C1698   1.378       .  A
C1697      H1700   1.084       .  S
C1698      C1701   1.445       .  S
C1701      N1703   1.157       .  T
C1702      N1704   1.156       .  T
C1705      C1706   1.413       .  A
C1705      C1710   1.420       .  A
C1706      C1707   1.406       .  A
C1706      H1711   1.084       .  S
C1707      C1708   1.413       .  A
C1707      C1714   1.443       .  S
C1708      C1709   1.410       .  A
C1709      C1710   1.416       .  A
C1709      H1712   1.084   1_545  S
C1710      C1713   1.441   1_545  S
C1713      N1715   1.157       .  T
C1714      N1716   1.157       .  T
C1717      C1718   1.409       .  A
C1717      C1722   1.423       .  A
C1718      C1719   1.407       .  A
C1718      H1723   1.084       .  S
C1719      C1720   1.413       .  A
C1719      C1726   1.441       .  S
C1720      C1721   1.405       .  A
C1721      C1722   1.411       .  A
C1721      H1724   1.083       .  S
C1722      C1725   1.443       .  S
C1725      N1727   1.157       .  T
C1726      N1728   1.157       .  T
C1729      C1730   1.411       .  A
C1729      C1734   1.428       .  A
C1730      C1731   1.411       .  A
C1730      H1735   1.084       .  S
C1731      C1732   1.414       .  A
C1731      C1738   1.442       .  S
C1732      C1733   1.400       .  A
C1733      C1734   1.406       .  A
C1733      H1736   1.083       .  S
C1734      C1737   1.445       .  S
C1737      N1739   1.158       .  T
C1738      N1740   1.157       .  T
C1741      C1742   1.415   1_545  A
C1741      C1746   1.418       .  A
C1742      C1743   1.406       .  A
C1742      H1747   1.084       .  S
C1743      C1744   1.408   1_565  A
C1743      C1750   1.442       .  S
C1744      C1745   1.411       .  A
C1745      C1746   1.414       .  A
C1745      H1748   1.084       .  S
C1746      C1749   1.442       .  S
C1749      N1751   1.157       .  T
C1750      N1752   1.157       .  T
C1753      C1754   1.405       .  A
C1753      C1758   1.408       .  A
C1754      C1755   1.387       .  A
C1754      H1759   1.080       .  S
C1755      C1756   1.401       .  A
C1755      C1762   1.444       .  S
C1756      C1757   1.408       .  A
C1757      C1758   1.401       .  A
C1757      H1760   1.085       .  S
C1758      C1761   1.442       .  S
C1761      N1763   1.157       .  T
C1762      N1764   1.157       .  T
C1765      C1766   1.404       .  A
C1765      C1770   1.422   1_545  A
C1766      C1767   1.392       .  A
C1766      H1771   1.084       .  S
C1767      C1768   1.408       .  A
C1767      C1774   1.443       .  S
C1768      C1769   1.389   1_545  A
C1769      C1770   1.384       .  A
C1769      H1772   1.086       .  S
C1770      C1773   1.445       .  S
C1773      N1775   1.157       .  T
C1774      N1776   1.157       .  T
C1777      C1778   1.405       .  A
C1777      C1782   1.422       .  A
C1778      C1779   1.397       .  A
C1778      H1783   1.084   1_545  S
C1779      C1780   1.410       .  A
C1779      C1786   1.444   1_545  S
C1780      C1781   1.393       .  A
C1781      C1782   1.389       .  A
C1781      H1784   1.086       .  S
C1782      C1785   1.442       .  S
C1785      N1787   1.156       .  T
C1786      N1788   1.157       .  T
C1789      C1790   1.407       .  A
C1789      C1794   1.409       .  A
C1790      C1791   1.415       .  A
C1790      H1795   1.084       .  S
C1791      C1792   1.422       .  A
C1791      C1798   1.442       .  S
C1792      C1793   1.414       .  A
C1793      C1794   1.406       .  A
C1793      H1796   1.084       .  S
C1794      C1797   1.442       .  S
C1797      N1799   1.157       .  T
C1798      N1800   1.157       .  T
C1801      C1802   1.402   1_565  A
C1801      C1806   1.418       .  A
C1802      C1803   1.407       .  A
C1802      H1807   1.085       .  S
C1803      C1804   1.420       .  A
C1803      C1810   1.443       .  S
C1804      C1805   1.406   1_545  A
C1805      C1806   1.410       .  A
C1805      H1808   1.085       .  S
C1806      C1809   1.441       .  S
C1809      N1811   1.157       .  T
C1810      N1812   1.157       .  T
C1813      C1814   1.412       .  A
C1813      C1818   1.420       .  A
C1814      C1815   1.405       .  A
C1814      H1819   1.084       .  S
C1815      C1816   1.411       .  A
C1815      C1822   1.440       .  S
C1816      C1817   1.409       .  A
C1817      C1818   1.414       .  A
C1817      H1820   1.084   1_545  S
C1818      C1821   1.441   1_545  S
C1821      N1823   1.157       .  T
C1822      N1824   1.157       .  T
C1825      C1826   1.411       .  A
C1825      C1830   1.418       .  A
C1826      C1827   1.410       .  A
C1826      H1831   1.084       .  S
C1827      C1828   1.411       .  A
C1827      C1834   1.443       .  S
C1828      C1829   1.405       .  A
C1829      C1830   1.402       .  A
C1829      H1832   1.084       .  S
C1830      C1833   1.444       .  S
C1833      N1835   1.157       .  T
C1834      N1836   1.157       .  T
C1837      C1838   1.404       .  A
C1837      C1842   1.408       .  A
C1838      C1839   1.399       .  A
C1838      H1843   1.083       .  S
C1839      C1840   1.401       .  A
C1839      C1846   1.436       .  S
C1840      C1841   1.398       .  A
C1841      C1842   1.380       .  A
C1841      H1844   1.086       .  S
C1842      C1845   1.446       .  S
C1845      N1847   1.157       .  T
C1846      N1848   1.155       .  T
C1849      C1850   1.402       .  A
C1849      C1854   1.416   1_565  A
C1850      C1851   1.402       .  A
C1850      H1855   1.085       .  S
C1851      C1852   1.416       .  A
C1851      C1858   1.444       .  S
C1852      C1853   1.395   1_565  A
C1853      C1854   1.386       .  A
C1853      H1856   1.085       .  S
C1854      C1857   1.444       .  S
C1857      N1859   1.157       .  T
C1858      N1860   1.157       .  T
C1861      C1862   1.397       .  A
C1861      C1866   1.410       .  A
C1862      C1863   1.384       .  A
C1862      H1867   1.086       .  S
C1863      C1864   1.415       .  A
C1863      C1870   1.444   1_545  S
C1864      C1865   1.402       .  A
C1865      C1866   1.400       .  A
C1865      H1868   1.081       .  S
C1866      C1869   1.442       .  S
C1869      N1871   1.157       .  T
C1870      N1872   1.157       .  T
C1873      C1874   1.398       .  A
C1873      C1878   1.414       .  A
C1874      C1875   1.406       .  A
C1874      H1879   1.085       .  S
C1875      C1876   1.424       .  A
C1875      C1882   1.439       .  S
C1876      C1877   1.411       .  A
C1877      C1878   1.411       .  A
C1877      H1880   1.084       .  S
C1878      C1881   1.442       .  S
C1881      N1883   1.157       .  T
C1882      N1884   1.156       .  T
C1885      C1886   1.413   1_455  A
C1885      C1890   1.424       .  A
C1886      C1887   1.413       .  A
C1886      H1891   1.084       .  S
C1887      C1888   1.412   1_655  A
C1887      C1894   1.442       .  S
C1888      C1889   1.401       .  A
C1889      C1890   1.405       .  A
C1889      H1892   1.083       .  S
C1890      C1893   1.444       .  S
C1893      N1895   1.157       .  T
C1894      N1896   1.157       .  T
C1897      C1898   1.411       .  A
C1897      C1902   1.420       .  A
C1898      C1899   1.412       .  A
C1898      H1903   1.084   1_455  S
C1899      C1900   1.415       .  A
C1899      C1906   1.442   1_455  S
C1900      C1901   1.400       .  A
C1901      C1902   1.407       .  A
C1901      H1904   1.085       .  S
C1902      C1905   1.439       .  S
C1905      N1907   1.155       .  T
C1906      N1908   1.157       .  T
C1909      C1910   1.408       .  A
C1909      C1914   1.409       .  A
C1910      C1911   1.403       .  A
C1910      H1915   1.083       .  S
C1911      C1912   1.411       .  A
C1911      C1918   1.443       .  S
C1912      C1913   1.414       .  A
C1913      C1914   1.414       .  A
C1913      H1916   1.081       .  S
C1914      C1917   1.441       .  S
C1917      N1919   1.157       .  T
C1918      N1920   1.157       .  T
C1921      C1922   1.402       .  A
C1921      C1926   1.403       .  A
C1922      C1923   1.398       .  A
C1922      H1927   1.085       .  S
C1923      C1924   1.415       .  A
C1923      C1930   1.443       .  S
C1924      C1925   1.408       .  A
C1925      C1926   1.388       .  A
C1925      H1928   1.084       .  S
C1926      C1929   1.446       .  S
C1929      N1931   1.157       .  T
C1930      N1932   1.157       .  T
C1933      C1934   1.400       .  A
C1933      C1938   1.408       .  A
C1934      C1935   1.388       .  A
C1934      H1939   1.082       .  S
C1935      C1936   1.406       .  A
C1935      C1942   1.444       .  S
C1936      C1937   1.402       .  A
C1937      C1938   1.399       .  A
C1937      H1940   1.083       .  S
C1938      C1941   1.443       .  S
C1941      N1943   1.157       .  T
C1942      N1944   1.157       .  T
C1945      C1946   1.416   1_455  A
C1945      C1950   1.402       .  A
C1946      C1947   1.396       .  A
C1946      H1951   1.085       .  S
C1947      C1948   1.400       .  A
C1947      C1954   1.443       .  S
C1948      C1949   1.412   1_655  A
C1949      C1950   1.391       .  A
C1949      H1952   1.085       .  S
C1950      C1953   1.443       .  S
C1953      N1955   1.157       .  T
C1954      N1956   1.157       .  T
C1957      C1958   1.406       .  A
C1957      C1962   1.402       .  A
C1958      C1959   1.394       .  A
C1958      H1963   1.085   1_455  S
C1959      C1960   1.410       .  A
C1959      C1966   1.444   1_455  S
C1960      C1961   1.413       .  A
C1961      C1962   1.389       .  A
C1961      H1964   1.084       .  S
C1962      C1965   1.445       .  S
C1965      N1967   1.157       .  T
C1966      N1968   1.157       .  T
C1969      C1970   1.407   1_556  A
C1969      C1974   1.415       .  A
C1970      C1971   1.412       .  A
C1970      H1975   1.084       .  S
C1971      C1972   1.418   1_554  A
C1971      C1978   1.442       .  S
C1972      C1973   1.408       .  A
C1973      C1974   1.404       .  A
C1973      H1976   1.085       .  S
C1974      C1977   1.442       .  S
C1977      N1979   1.157       .  T
C1978      N1980   1.157       .  T
C1981      C1982   1.417   1_556  A
C1981      C1986   1.420       .  A
C1982      C1983   1.409       .  A
C1982      H1987   1.084       .  S
C1983      C1984   1.409   1_554  A
C1983      C1990   1.443       .  S
C1984      C1985   1.409       .  A
C1985      C1986   1.414       .  A
C1985      H1988   1.084       .  S
C1986      C1989   1.441       .  S
C1989      N1991   1.157       .  T
C1990      N1992   1.157       .  T
C1993      C1994   1.416       .  A
C1993      C1998   1.421       .  A
C1994      C1995   1.409       .  A
C1994      H1999   1.084       .  S
C1995      C1996   1.408       .  A
C1995      C2002   1.443       .  S
C1996      C1997   1.404       .  A
C1997      C1998   1.407       .  A
C1997      H2000   1.083   1_545  S
C1998      C2001   1.441   1_545  S
C2001      N2003   1.156       .  T
C2002      N2004   1.157       .  T
C2005      C2006   1.406       .  A
C2005      C2010   1.411   1_545  A
C2006      C2007   1.412       .  A
C2006      H2011   1.084       .  S
C2007      C2008   1.420       .  A
C2007      C2014   1.442       .  S
C2008      C2009   1.414   1_545  A
C2009      C2010   1.407       .  A
C2009      H2012   1.084       .  S
C2010      C2013   1.441       .  S
C2013      N2015   1.157       .  T
C2014      N2016   1.157       .  T
C2017      C2018   1.412       .  A
C2017      C2022   1.426   1_556  A
C2018      C2019   1.409       .  A
C2018      H2023   1.084       .  S
C2019      C2020   1.415       .  A
C2019      C2026   1.443       .  S
C2020      C2021   1.393   1_556  A
C2021      C2022   1.400       .  A
C2021      H2024   1.086       .  S
C2022      C2025   1.436       .  S
C2025      N2027   1.154       .  T
C2026      N2028   1.157       .  T
C2029      C2030   1.409   1_556  A
C2029      C2034   1.416       .  A
C2030      C2031   1.406       .  A
C2030      H2035   1.084       .  S
C2031      C2032   1.412   1_554  A
C2031      C2038   1.442       .  S
C2032      C2033   1.409       .  A
C2033      C2034   1.406       .  A
C2033      H2036   1.084       .  S
C2034      C2037   1.443       .  S
C2037      N2039   1.157       .  T
C2038      N2040   1.157       .  T
C2041      C2042   1.400       .  A
C2041      C2046   1.417   1_545  A
C2042      C2043   1.407       .  A
C2042      H2047   1.085       .  S
C2043      C2044   1.426       .  A
C2043      C2050   1.444       .  S
C2044      C2045   1.409   1_545  A
C2045      C2046   1.412       .  A
C2045      H2048   1.084       .  S
C2046      C2049   1.443       .  S
C2049      N2051   1.157       .  T
C2050      N2052   1.158       .  T
C2053      C2054   1.393   1_545  A
C2053      C2058   1.415       .  A
C2054      C2055   1.399       .  A
C2054      H2059   1.085       .  S
C2055      C2056   1.426   1_565  A
C2055      C2062   1.436       .  S
C2056      C2057   1.412       .  A
C2057      C2058   1.414       .  A
C2057      H2060   1.084       .  S
C2058      C2061   1.442       .  S
C2061      N2063   1.157       .  T
C2062      N2064   1.154       .  T
C2065      C2066   1.397       .  A
C2065      C2070   1.418       .  A
C2066      C2067   1.401       .  A
C2066      H2071   1.084       .  S
C2067      C2068   1.423       .  A
C2067      C2074   1.440       .  S
C2068      C2069   1.409       .  A
C2069      C2070   1.412       .  A
C2069      H2072   1.084       .  S
C2070      C2073   1.441       .  S
C2073      N2075   1.157       .  T
C2074      N2076   1.156       .  T
C2077      C2078   1.417       .  A
C2077      C2082   1.420       .  A
C2078      C2079   1.409       .  A
C2078      H2083   1.084       .  S
C2079      C2080   1.409       .  A
C2079      C2086   1.443       .  S
C2080      C2081   1.409       .  A
C2081      C2082   1.415       .  A
C2081      H2084   1.082       .  S
C2082      C2085   1.442       .  S
C2085      N2087   1.157       .  T
C2086      N2088   1.157       .  T
C2089      C2090   1.395       .  A
C2089      C2094   1.412   1_545  A
C2090      C2091   1.401       .  A
C2090      H2095   1.085       .  S
C2091      C2092   1.426       .  A
C2091      C2098   1.439       .  S
C2092      C2093   1.410   1_545  A
C2093      C2094   1.408       .  A
C2093      H2096   1.084       .  S
C2094      C2097   1.442       .  S
C2097      N2099   1.157       .  T
C2098      N2100   1.156       .  T
C2101      C2102   1.413   1_565  A
C2101      C2106   1.428       .  A
C2102      C2103   1.415       .  A
C2102      H2107   1.084       .  S
C2103      C2104   1.414       .  A
C2103      C2110   1.442       .  S
C2104      C2105   1.397   1_545  A
C2105      C2106   1.402       .  A
C2105      H2108   1.079       .  S
C2106      C2109   1.445       .  S
C2109      N2111   1.158       .  T
C2110      N2112   1.157       .  T
C2113      C2114   1.402       .  A
C2113      C2118   1.425   1_545  A
C2114      C2115   1.397       .  A
C2114      H2119   1.084       .  S
C2115      C2116   1.414       .  A
C2115      C2122   1.443       .  S
C2116      C2117   1.391   1_545  A
C2117      C2118   1.388       .  A
C2117      H2120   1.082       .  S
C2118      C2121   1.443       .  S
C2121      N2123   1.157       .  T
C2122      N2124   1.157       .  T
C2125      C2126   1.400       .  A
C2125      C2130   1.410   1_565  A
C2126      C2127   1.394       .  A
C2126      H2131   1.085       .  S
C2127      C2128   1.407       .  A
C2127      C2134   1.443       .  S
C2128      C2129   1.393   1_565  A
C2129      C2130   1.383       .  A
C2129      H2132   1.086       .  S
C2130      C2133   1.442       .  S
C2133      N2135   1.156       .  T
C2134      N2136   1.157       .  T
C2137      C2138   1.407   1_554  A
C2137      C2142   1.415       .  A
C2138      C2139   1.405       .  A
C2138      H2143   1.085       .  S
C2139      C2140   1.412       .  A
C2139      C2146   1.441       .  S
C2140      C2141   1.410   1_556  A
C2141      C2142   1.415       .  A
C2141      H2144   1.084       .  S
C2142      C2145   1.442       .  S
C2145      N2147   1.157       .  T
C2146      N2148   1.157       .  T
C2149      C2150   1.396       .  A
C2149      C2154   1.416   1_556  A
C2150      C2151   1.405       .  A
C2150      H2155   1.079       .  S
C2151      C2152   1.412       .  A
C2151      C2158   1.444       .  S
C2152      C2153   1.410   1_556  A
C2153      C2154   1.413       .  A
C2153      H2156   1.084       .  S
C2154      C2157   1.442       .  S
C2157      N2159   1.157       .  T
C2158      N2160   1.158       .  T
C2161      C2162   1.409       .  A
C2161      C2166   1.423       .  A
C2162      C2163   1.406       .  A
C2162      H2167   1.084       .  S
C2163      C2164   1.414       .  A
C2163      C2170   1.440       .  S
C2164      C2165   1.404       .  A
C2165      C2166   1.410       .  A
C2165      H2168   1.084       .  S
C2166      C2169   1.443       .  S
C2169      N2171   1.157       .  T
C2170      N2172   1.157       .  T
C2173      C2174   1.410       .  A
C2173      C2178   1.422       .  A
C2174      C2175   1.403       .  A
C2174      H2179   1.084       .  S
C2175      C2176   1.412       .  A
C2175      C2182   1.440       .  S
C2176      C2177   1.406       .  A
C2177      C2178   1.412       .  A
C2177      H2180   1.085       .  S
C2178      C2181   1.441       .  S
C2181      N2183   1.157       .  T
C2182      N2184   1.157       .  T
C2185      C2186   1.410       .  A
C2185      C2190   1.412       .  A
C2186      C2187   1.393       .  A
C2186      H2191   1.082       .  S
C2187      C2188   1.403       .  A
C2187      C2194   1.444       .  S
C2188      C2189   1.406       .  A
C2189      C2190   1.399       .  A
C2189      H2192   1.085       .  S
C2190      C2193   1.443       .  S
C2193      N2195   1.157       .  T
C2194      N2196   1.157       .  T
C2197      C2198   1.398       .  A
C2197      C2202   1.410       .  A
C2198      C2199   1.382       .  A
C2198      H2203   1.086       .  S
C2199      C2200   1.409       .  A
C2199      C2206   1.444       .  S
C2200      C2201   1.396       .  A
C2201      C2202   1.398       .  A
C2201      H2204   1.085       .  S
C2202      C2205   1.435       .  S
C2205      N2207   1.158       .  T
C2206      N2208   1.157       .  T
C2209      C2210   1.401       .  A
C2209      C2214   1.422   1_556  A
C2210      C2211   1.398       .  A
C2210      H2215   1.085       .  S
C2211      C2212   1.416       .  A
C2211      C2218   1.442       .  S
C2212      C2213   1.394   1_556  A
C2213      C2214   1.387       .  A
C2213      H2216   1.085       .  S
C2214      C2217   1.442       .  S
C2217      N2219   1.156       .  T
C2218      N2220   1.157       .  T
C2221      C2222   1.415       .  A
C2221      C2226   1.418       .  A
C2222      C2223   1.404       .  A
C2222      H2227   1.084   1_545  S
C2223      C2224   1.407       .  A
C2223      C2230   1.443   1_545  S
C2224      C2225   1.407       .  A
C2225      C2226   1.410       .  A
C2225      H2228   1.084       .  S
C2226      C2229   1.442       .  S
C2229      N2231   1.157       .  T
C2230      N2232   1.157       .  T
C2233      C2234   1.404       .  A
C2233      C2238   1.413       .  A
C2234      C2235   1.410       .  A
C2234      H2239   1.085   1_545  S
C2235      C2236   1.422       .  A
C2235      C2242   1.441   1_545  S
C2236      C2237   1.413       .  A
C2237      C2238   1.410       .  A
C2237      H2240   1.083       .  S
C2238      C2241   1.443       .  S
C2241      N2243   1.157       .  T
C2242      N2244   1.157       .  T
C2245      C2246   1.407       .  A
C2245      C2250   1.421       .  A
C2246      C2247   1.407       .  A
C2246      H2251   1.084       .  S
C2247      C2248   1.415       .  A
C2247      C2254   1.440       .  S
C2248      C2249   1.402       .  A
C2249      C2250   1.408       .  A
C2249      H2252   1.084       .  S
C2250      C2253   1.443       .  S
C2253      N2255   1.157       .  T
C2254      N2256   1.157       .  T
C2257      C2258   1.413       .  A
C2257      C2262   1.420       .  A
C2258      C2259   1.406       .  A
C2258      H2263   1.084       .  S
C2259      C2260   1.415       .  A
C2259      C2266   1.443       .  S
C2260      C2261   1.409       .  A
C2261      C2262   1.411       .  A
C2261      H2264   1.083       .  S
C2262      C2265   1.442       .  S
C2265      N2267   1.157       .  T
C2266      N2268   1.157       .  T
C2269      C2270   1.409       .  A
C2269      C2274   1.414       .  A
C2270      C2271   1.402       .  A
C2270      H2275   1.084       .  S
C2271      C2272   1.404       .  A
C2271      C2278   1.437       .  S
C2272      C2273   1.398       .  A
C2273      C2274   1.383       .  A
C2273      H2276   1.085       .  S
C2274      C2277   1.442       .  S
C2277      N2279   1.156       .  T
C2278      N2280   1.155       .  T
C2281      C2282   1.407       .  A
C2281      C2286   1.420       .  A
C2282      C2283   1.404       .  A
C2282      H2287   1.084       .  S
C2283      C2284   1.415       .  A
C2283      C2290   1.442       .  S
C2284      C2285   1.394       .  A
C2285      C2286   1.378       .  A
C2285      H2288   1.080   1_545  S
C2286      C2289   1.446   1_545  S
C2289      N2291   1.157       .  T
C2290      N2292   1.157       .  T
C2293      C2294   1.409       .  A
C2293      C2298   1.404       .  A
C2294      C2295   1.393       .  A
C2294      H2299   1.084       .  S
C2295      C2296   1.407       .  A
C2295      C2302   1.445       .  S
C2296      C2297   1.413       .  A
C2297      C2298   1.392       .  A
C2297      H2300   1.085   1_545  S
C2298      C2301   1.445   1_545  S
C2301      N2303   1.157       .  T
C2302      N2304   1.157       .  T
C2305      C2306   1.407       .  A
C2305      C2310   1.416   1_556  A
C2306      C2307   1.409       .  A
C2306      H2311   1.084       .  S
C2307      C2308   1.414       .  A
C2307      C2314   1.442       .  S
C2308      C2309   1.410   1_556  A
C2309      C2310   1.412       .  A
C2309      H2312   1.084       .  S
C2310      C2313   1.443       .  S
C2313      N2315   1.157       .  T
C2314      N2316   1.157       .  T
C2317      C2318   1.417       .  A
C2317      C2322   1.420   1_556  A
C2318      C2319   1.409       .  A
C2318      H2323   1.084       .  S
C2319      C2320   1.406       .  A
C2319      C2326   1.444       .  S
C2320      C2321   1.408   1_556  A
C2321      C2322   1.413       .  A
C2321      H2324   1.084       .  S
C2322      C2325   1.441       .  S
C2325      N2327   1.157       .  T
C2326      N2328   1.158       .  T
C2329      C2330   1.416       .  A
C2329      C2334   1.421       .  A
C2330      C2331   1.413       .  A
C2330      H2335   1.084       .  S
C2331      C2332   1.412       .  A
C2331      C2338   1.442       .  S
C2332      C2333   1.402       .  A
C2333      C2334   1.408       .  A
C2333      H2336   1.081       .  S
C2334      C2337   1.441       .  S
C2337      N2339   1.157       .  T
C2338      N2340   1.157       .  T
C2341      C2342   1.410       .  A
C2341      C2346   1.416       .  A
C2342      C2343   1.405       .  A
C2342      H2347   1.084       .  S
C2343      C2344   1.408       .  A
C2343      C2350   1.443       .  S
C2344      C2345   1.405       .  A
C2345      C2346   1.405       .  A
C2345      H2348   1.084       .  S
C2346      C2349   1.443       .  S
C2349      N2351   1.157       .  T
C2350      N2352   1.157       .  T
C2353      C2354   1.400       .  A
C2353      C2358   1.410       .  A
C2354      C2355   1.391       .  A
C2354      H2359   1.083       .  S
C2355      C2356   1.407       .  A
C2355      C2362   1.445       .  S
C2356      C2357   1.399       .  A
C2357      C2358   1.397       .  A
C2357      H2360   1.085       .  S
C2358      C2361   1.443       .  S
C2361      N2363   1.157       .  T
C2362      N2364   1.157       .  T
C2365      C2366   1.387       .  A
C2365      C2370   1.411       .  A
C2366      C2367   1.379       .  A
C2366      H2371   1.088       .  S
C2367      C2368   1.420       .  A
C2367      C2374   1.443       .  S
C2368      C2369   1.400       .  A
C2369      C2370   1.390       .  A
C2369      H2372   1.085       .  S
C2370      C2373   1.443       .  S
C2373      N2375   1.157       .  T
C2374      N2376   1.156       .  T
C2377      C2378   1.402       .  A
C2377      C2382   1.411   1_554  A
C2378      C2379   1.405       .  A
C2378      H2383   1.085       .  S
C2379      C2380   1.414       .  A
C2379      C2386   1.440       .  S
C2380      C2381   1.401   1_554  A
C2381      C2382   1.389       .  A
C2381      H2384   1.085       .  S
C2382      C2385   1.444       .  S
C2385      N2387   1.157       .  T
C2386      N2388   1.156       .  T
C2389      C2390   1.414   1_556  A
C2389      C2394   1.408       .  A
C2390      C2391   1.393       .  A
C2390      H2395   1.083       .  S
C2391      C2392   1.400       .  A
C2391      C2398   1.444       .  S
C2392      C2393   1.405   1_554  A
C2393      C2394   1.386       .  A
C2393      H2396   1.086       .  S
C2394      C2397   1.445       .  S
C2397      N2399   1.158       .  T
C2398      N2400   1.157       .  T
C2401      C2402   1.406   1_556  A
C2401      C2406   1.415       .  A
C2402      C2403   1.410       .  A
C2402      H2407   1.085       .  S
C2403      C2404   1.420   1_554  A
C2403      C2410   1.442       .  S
C2404      C2405   1.407       .  A
C2405      C2406   1.410       .  A
C2405      H2408   1.085       .  S
C2406      C2409   1.440       .  S
C2409      N2411   1.157       .  T
C2410      N2412   1.157       .  T
C2413      C2414   1.395       .  A
C2413      C2418   1.416   1_556  A
C2414      C2415   1.402       .  A
C2414      H2419   1.085       .  S
C2415      C2416   1.430       .  A
C2415      C2422   1.446       .  S
C2416      C2417   1.409   1_556  A
C2417      C2418   1.416       .  A
C2417      H2420   1.084       .  S
C2418      C2421   1.442       .  S
C2421      N2423   1.157       .  T
C2422      N2424   1.158       .  T
C2425      C2426   1.412       .  A
C2425      C2430   1.419       .  A
C2426      C2427   1.406       .  A
C2426      H2431   1.084       .  S
C2427      C2428   1.413       .  A
C2427      C2434   1.441       .  S
C2428      C2429   1.410       .  A
C2429      C2430   1.412       .  A
C2429      H2432   1.084   1_455  S
C2430      C2433   1.441   1_455  S
C2433      N2435   1.157       .  T
C2434      N2436   1.157       .  T
C2437      C2438   1.410       .  A
C2437      C2442   1.415   1_455  A
C2438      C2439   1.409       .  A
C2438      H2443   1.084       .  S
C2439      C2440   1.412       .  A
C2439      C2446   1.443       .  S
C2440      C2441   1.407   1_455  A
C2441      C2442   1.408       .  A
C2441      H2444   1.083       .  S
C2442      C2445   1.442       .  S
C2445      N2447   1.157       .  T
C2446      N2448   1.157       .  T
C2449      C2450   1.411   1_556  A
C2449      C2454   1.430       .  A
C2450      C2451   1.415       .  A
C2450      H2455   1.084       .  S
C2451      C2452   1.417   1_554  A
C2451      C2458   1.442       .  S
C2452      C2453   1.399       .  A
C2453      C2454   1.406       .  A
C2453      H2456   1.082       .  S
C2454      C2457   1.445       .  S
C2457      N2459   1.158       .  T
C2458      N2460   1.157       .  T
C2461      C2462   1.407   1_655  A
C2461      C2466   1.413       .  A
C2462      C2463   1.406       .  A
C2462      H2467   1.083       .  S
C2463      C2464   1.419   1_455  A
C2463      C2470   1.442       .  S
C2464      C2465   1.415       .  A
C2465      C2466   1.408       .  A
C2465      H2468   1.084       .  S
C2466      C2469   1.442       .  S
C2469      N2471   1.157       .  T
C2470      N2472   1.157       .  T
C2473      C2474   1.414       .  A
C2473      C2478   1.423   1_556  A
C2474      C2475   1.417       .  A
C2474      H2479   1.084       .  S
C2475      C2476   1.414       .  A
C2475      C2482   1.442       .  S
C2476      C2477   1.407   1_556  A
C2477      C2478   1.410       .  A
C2477      H2480   1.085       .  S
C2478      C2481   1.444       .  S
C2481      N2483   1.157       .  T
C2482      N2484   1.157       .  T
C2485      C2486   1.399   1_455  A
C2485      C2490   1.414       .  A
C2486      C2487   1.402       .  A
C2486      H2491   1.084       .  S
C2487      C2488   1.421   1_655  A
C2487      C2494   1.443       .  S
C2488      C2489   1.408       .  A
C2489      C2490   1.411       .  A
C2489      H2492   1.084       .  S
C2490      C2493   1.443       .  S
C2493      N2495   1.157       .  T
C2494      N2496   1.157       .  T
C2497      C2498   1.407       .  A
C2497      C2502   1.413       .  A
C2498      C2499   1.407       .  A
C2498      H2503   1.085       .  S
C2499      C2500   1.414       .  A
C2499      C2506   1.443       .  S
C2500      C2501   1.409       .  A
C2501      C2502   1.408       .  A
C2501      H2504   1.083       .  S
C2502      C2505   1.443       .  S
C2505      N2507   1.157       .  T
C2506      N2508   1.157       .  T
C2509      C2510   1.405       .  A
C2509      C2514   1.413       .  A
C2510      C2511   1.408       .  A
C2510      H2515   1.084       .  S
C2511      C2512   1.420       .  A
C2511      C2518   1.444       .  S
C2512      C2513   1.410       .  A
C2513      C2514   1.409       .  A
C2513      H2516   1.084       .  S
C2514      C2517   1.441       .  S
C2517      N2519   1.157       .  T
C2518      N2520   1.157       .  T
C2521      C2522   1.406       .  A
C2521      C2526   1.412   1_455  A
C2522      C2523   1.407       .  A
C2522      H2527   1.082       .  S
C2523      C2524   1.420   1_455  A
C2523      C2530   1.442       .  S
C2524      C2525   1.414       .  A
C2525      C2526   1.408       .  A
C2525      H2528   1.084       .  S
C2526      C2529   1.442       .  S
C2529      N2531   1.157       .  T
C2530      N2532   1.157       .  T
C2533      C2534   1.413   1_455  A
C2533      C2538   1.423       .  A
C2534      C2535   1.406       .  A
C2534      H2539   1.084       .  S
C2535      C2536   1.410   1_655  A
C2535      C2542   1.443       .  S
C2536      C2537   1.402       .  A
C2537      C2538   1.407       .  A
C2537      H2540   1.085       .  S
C2538      C2541   1.444       .  S
C2541      N2543   1.157       .  T
C2542      N2544   1.157       .  T
C2545      C2546   1.398       .  A
C2545      C2550   1.405       .  A
C2546      C2547   1.385       .  A
C2546      H2551   1.086       .  S
C2547      C2548   1.408       .  A
C2547      C2554   1.445       .  S
C2548      C2549   1.401       .  A
C2549      C2550   1.400       .  A
C2549      H2552   1.081       .  S
C2550      C2553   1.436       .  S
C2553      N2555   1.155       .  T
C2554      N2556   1.157       .  T
C2557      C2558   1.398   1_655  A
C2557      C2562   1.413       .  A
C2558      C2559   1.387       .  A
C2558      H2563   1.085       .  S
C2559      C2560   1.409   1_455  A
C2559      C2566   1.443       .  S
C2560      C2561   1.402       .  A
C2561      C2562   1.402       .  A
C2561      H2564   1.084       .  S
C2562      C2565   1.442       .  S
C2565      N2567   1.157       .  T
C2566      N2568   1.157       .  T
C2569      C2570   1.408       .  A
C2569      C2574   1.421       .  A
C2570      C2571   1.402       .  A
C2570      H2575   1.085       .  S
C2571      C2572   1.414       .  A
C2571      C2578   1.443       .  S
C2572      C2573   1.403       .  A
C2573      C2574   1.409       .  A
C2573      H2576   1.085       .  S
C2574      C2577   1.443       .  S
C2577      N2579   1.157       .  T
C2578      N2580   1.158       .  T
C2581      C2582   1.411       .  A
C2581      C2586   1.422       .  A
C2582      C2583   1.410       .  A
C2582      H2587   1.084       .  S
C2583      C2584   1.411       .  A
C2583      C2590   1.442       .  S
C2584      C2585   1.400       .  A
C2585      C2586   1.401       .  A
C2585      H2588   1.083       .  S
C2586      C2589   1.443       .  S
C2589      N2591   1.157       .  T
C2590      N2592   1.157       .  T
C2593      C2594   1.411       .  A
C2593      C2598   1.426   1_556  A
C2594      C2595   1.408       .  A
C2594      H2599   1.084       .  S
C2595      C2596   1.413       .  A
C2595      C2602   1.443       .  S
C2596      C2597   1.398   1_556  A
C2597      C2598   1.403       .  A
C2597      H2600   1.085       .  S
C2598      C2601   1.443       .  S
C2601      N2603   1.157       .  T
C2602      N2604   1.157       .  T
C2605      C2606   1.410       .  A
C2605      C2610   1.407       .  A
C2606      C2607   1.423       .  A
C2606      H2611   1.083       .  S
C2607      C2608   1.430       .  A
C2607      C2614   1.441       .  S
C2608      C2609   1.404       .  A
C2609      C2610   1.401       .  A
C2609      H2612   1.081       .  S
C2610      C2613   1.447       .  S
C2613      N2615   1.157       .  T
C2614      N2616   1.157       .  T
C2617      C2618   1.408       .  A
C2617      C2622   1.408       .  A
C2618      C2619   1.387       .  A
C2618      H2623   1.074       .  S
C2619      C2620   1.398       .  A
C2619      C2626   1.447       .  S
C2620      C2621   1.404       .  A
C2621      C2622   1.393       .  A
C2621      H2624   1.085       .  S
C2622      C2625   1.443       .  S
C2625      N2627   1.157       .  T
C2626      N2628   1.158       .  T
C2629      C2630   1.406   1_556  A
C2629      C2634   1.404       .  A
C2630      C2631   1.390       .  A
C2630      H2635   1.079       .  S
C2631      C2632   1.401   1_554  A
C2631      C2638   1.444       .  S
C2632      C2633   1.409       .  A
C2633      C2634   1.390       .  A
C2633      H2636   1.085       .  S
C2634      C2637   1.443       .  S
C2637      N2639   1.157       .  T
C2638      N2640   1.157       .  T
C2641      C2642   1.389       .  A
C2641      C2646   1.413   1_556  A
C2642      C2643   1.378       .  A
C2642      H2647   1.086       .  S
C2643      C2644   1.420   1_556  A
C2643      C2650   1.446       .  S
C2644      C2645   1.400       .  A
C2645      C2646   1.401       .  A
C2645      H2648   1.081       .  S
C2646      C2649   1.441       .  S
C2649      N2651   1.157       .  T
C2650      N2652   1.157       .  T
C2653      C2654   1.407       .  A
C2653      C2658   1.418       .  A
C2654      C2655   1.408       .  A
C2654      H2659   1.084       .  S
C2655      C2656   1.418       .  A
C2655      C2662   1.440       .  S
C2656      C2657   1.411       .  A
C2657      C2658   1.415       .  A
C2657      H2660   1.084       .  S
C2658      C2661   1.442       .  S
C2661      N2663   1.157       .  T
C2662      N2664   1.157       .  T
C2665      C2666   1.407       .  A
C2665      C2670   1.410   1_655  A
C2666      C2667   1.410       .  A
C2666      H2671   1.083       .  S
C2667      C2668   1.414       .  A
C2667      C2674   1.441       .  S
C2668      C2669   1.411   1_655  A
C2669      C2670   1.407       .  A
C2669      H2672   1.085       .  S
C2670      C2673   1.443       .  S
C2673      N2675   1.157       .  T
C2674      N2676   1.157       .  T
C2677      C2678   1.407       .  A
C2677      C2682   1.422       .  A
C2678      C2679   1.409       .  A
C2678      H2683   1.084       .  S
C2679      C2680   1.416       .  A
C2679      C2686   1.442       .  S
C2680      C2681   1.400       .  A
C2681      C2682   1.405       .  A
C2681      H2684   1.085   1_455  S
C2682      C2685   1.444   1_455  S
C2685      N2687   1.157       .  T
C2686      N2688   1.157       .  T
C2689      C2690   1.407       .  A
C2689      C2694   1.418       .  A
C2690      C2691   1.409       .  A
C2690      H2695   1.085       .  S
C2691      C2692   1.414       .  A
C2691      C2698   1.439       .  S
C2692      C2693   1.404       .  A
C2693      C2694   1.403       .  A
C2693      H2696   1.084       .  S
C2694      C2697   1.443       .  S
C2697      N2699   1.157       .  T
C2698      N2700   1.157       .  T
C2701      C2702   1.404       .  A
C2701      C2706   1.396       .  A
C2702      C2703   1.393       .  A
C2702      H2707   1.082       .  S
C2703      C2704   1.404       .  A
C2703      C2710   1.443       .  S
C2704      C2705   1.403       .  A
C2705      C2706   1.381       .  A
C2705      H2708   1.075       .  S
C2706      C2709   1.445       .  S
C2709      N2711   1.157       .  T
C2710      N2712   1.157       .  T
C2713      C2714   1.401       .  A
C2713      C2718   1.410       .  A
C2714      C2715   1.399       .  A
C2714      H2719   1.085       .  S
C2715      C2716   1.411       .  A
C2715      C2722   1.444       .  S
C2716      C2717   1.398   1_655  A
C2717      C2718   1.386   1_455  A
C2717      H2720   1.086       .  S
C2718      C2721   1.445   1_655  S
C2721      N2723   1.157       .  T
C2722      N2724   1.157       .  T
C2725      C2726   1.396       .  A
C2725      C2730   1.409       .  A
C2726      C2727   1.386       .  A
C2726      H2731   1.081       .  S
C2727      C2728   1.410       .  A
C2727      C2734   1.445       .  S
C2728      C2729   1.406       .  A
C2729      C2730   1.405       .  A
C2729      H2732   1.085       .  S
C2730      C2733   1.444       .  S
C2733      N2735   1.157       .  T
C2734      N2736   1.157   1_455  T
C2737      C2738   1.410       .  A
C2737      C2742   1.431   1_556  A
C2738      C2739   1.414       .  A
C2738      H2743   1.084       .  S
C2739      C2740   1.416       .  A
C2739      C2746   1.440       .  S
C2740      C2741   1.398   1_556  A
C2741      C2742   1.406       .  A
C2741      H2744   1.085       .  S
C2742      C2745   1.444       .  S
C2745      N2747   1.157       .  T
C2746      N2748   1.157       .  T
C2749      C2750   1.405       .  A
C2749      C2754   1.420   1_556  A
C2750      C2751   1.406       .  A
C2750      H2755   1.085       .  S
C2751      C2752   1.418       .  A
C2751      C2758   1.440       .  S
C2752      C2753   1.407   1_556  A
C2753      C2754   1.413       .  A
C2753      H2756   1.084       .  S
C2754      C2757   1.443       .  S
C2757      N2759   1.157       .  T
C2758      N2760   1.157       .  T
C2761      C2762   1.410       .  A
C2761      C2766   1.418       .  A
C2762      C2763   1.409       .  A
C2762      H2767   1.084       .  S
C2763      C2764   1.411       .  A
C2763      C2770   1.443       .  S
C2764      C2765   1.406       .  A
C2765      C2766   1.406       .  A
C2765      H2768   1.084       .  S
C2766      C2769   1.443       .  S
C2769      N2771   1.157       .  T
C2770      N2772   1.157       .  T
C2773      C2774   1.405       .  A
C2773      C2778   1.418       .  A
C2774      C2775   1.408       .  A
C2774      H2779   1.085       .  S
C2775      C2776   1.418       .  A
C2775      C2782   1.441       .  S
C2776      C2777   1.401       .  A
C2777      C2778   1.403       .  A
C2777      H2780   1.085       .  S
C2778      C2781   1.443       .  S
C2781      N2783   1.157       .  T
C2782      N2784   1.157       .  T
C2785      C2786   1.400       .  A
C2785      C2790   1.405       .  A
C2786      C2787   1.386       .  A
C2786      H2791   1.086       .  S
C2787      C2788   1.413       .  A
C2787      C2794   1.446       .  S
C2788      C2789   1.405       .  A
C2789      C2790   1.400       .  A
C2789      H2792   1.085       .  S
C2790      C2793   1.438       .  S
C2793      N2795   1.155       .  T
C2794      N2796   1.157       .  T
C2797      C2798   1.407       .  A
C2797      C2802   1.403       .  A
C2798      C2799   1.398       .  A
C2798      H2803   1.081       .  S
C2799      C2800   1.410       .  A
C2799      C2806   1.444       .  S
C2800      C2801   1.414       .  A
C2801      C2802   1.386       .  A
C2801      H2804   1.084       .  S
C2802      C2805   1.447       .  S
C2805      N2807   1.157       .  T
C2806      N2808   1.157       .  T
C2809      C2810   1.394       .  A
C2809      C2814   1.412   1_556  A
C2810      C2811   1.390       .  A
C2810      H2815   1.086       .  S
C2811      C2812   1.423       .  A
C2811      C2818   1.444       .  S
C2812      C2813   1.402   1_556  A
C2813      C2814   1.398       .  A
C2813      H2816   1.084       .  S
C2814      C2817   1.442       .  S
C2817      N2819   1.157       .  T
C2818      N2820   1.157       .  T
C2821      C2822   1.409   1_556  A
C2821      C2826   1.410       .  A
C2822      C2823   1.374       .  A
C2822      H2827   1.085       .  S
C2823      C2824   1.399   1_554  A
C2823      C2830   1.449       .  S
C2824      C2825   1.403       .  A
C2825      C2826   1.398       .  A
C2825      H2828   1.084       .  S
C2826      C2829   1.441       .  S
C2829      N2831   1.157       .  T
C2830      N2832   1.157       .  T
C2833      C2834   1.400       .  A
C2833      C2838   1.401       .  A
C2834      C2835   1.402       .  A
C2834      H2839   1.083       .  S
C2835      C2836   1.423       .  A
C2835      C2842   1.437       .  S
C2836      C2837   1.422       .  A
C2837      C2838   1.409       .  A
C2837      H2840   1.075       .  S
C2838      C2841   1.442       .  S
C2841      N2843   1.157       .  T
C2842      N2844   1.156       .  T
C2845      C2846   1.409       .  A
C2845      C2850   1.424       .  A
C2846      C2847   1.407       .  A
C2846      H2851   1.084       .  S
C2847      C2848   1.409       .  A
C2847      C2854   1.443       .  S
C2848      C2849   1.398       .  A
C2849      C2850   1.400       .  A
C2849      H2852   1.082       .  S
C2850      C2853   1.444       .  S
C2853      N2855   1.157       .  T
C2854      N2856   1.157       .  T
C2857      C2858   1.409       .  A
C2857      C2862   1.428       .  A
C2858      C2859   1.413       .  A
C2858      H2863   1.084       .  S
C2859      C2860   1.418       .  A
C2859      C2866   1.441       .  S
C2860      C2861   1.399       .  A
C2861      C2862   1.406       .  A
C2861      H2864   1.085       .  S
C2862      C2865   1.445       .  S
C2865      N2867   1.158       .  T
C2866      N2868   1.157       .  T
C2869      C2870   1.408       .  A
C2869      C2874   1.422       .  A
C2870      C2871   1.409       .  A
C2870      H2875   1.084       .  S
C2871      C2872   1.416       .  A
C2871      C2878   1.440       .  S
C2872      C2873   1.401       .  A
C2873      C2874   1.404       .  A
C2873      H2876   1.083       .  S
C2874      C2877   1.445       .  S
C2877      N2879   1.157       .  T
C2878      N2880   1.157       .  T
C2881      C2882   1.412       .  A
C2881      C2886   1.416       .  A
C2882      C2883   1.404       .  A
C2882      H2887   1.084       .  S
C2883      C2884   1.410       .  A
C2883      C2890   1.442       .  S
C2884      C2885   1.412       .  A
C2885      C2886   1.418       .  A
C2885      H2888   1.084       .  S
C2886      C2889   1.441       .  S
C2889      N2891   1.157       .  T
C2890      N2892   1.157       .  T
C2893      C2894   1.412       .  A
C2893      C2898   1.426       .  A
C2894      C2895   1.412       .  A
C2894      H2899   1.084       .  S
C2895      C2896   1.413       .  A
C2895      C2902   1.442       .  S
C2896      C2897   1.398       .  A
C2897      C2898   1.403       .  A
C2897      H2900   1.082       .  S
C2898      C2901   1.445       .  S
C2901      N2903   1.157       .  T
C2902      N2904   1.157       .  T
C2905      C2906   1.410       .  A
C2905      C2910   1.417       .  A
C2906      C2907   1.415       .  A
C2906      H2911   1.084       .  S
C2907      C2908   1.418       .  A
C2907      C2914   1.442       .  S
C2908      C2909   1.405       .  A
C2909      C2910   1.409       .  A
C2909      H2912   1.081       .  S
C2910      C2913   1.441       .  S
C2913      N2915   1.156       .  T
C2914      N2916   1.157       .  T
C2917      C2918   1.398       .  A
C2917      C2922   1.415       .  A
C2918      C2919   1.403       .  A
C2918      H2923   1.083       .  S
C2919      C2920   1.425       .  A
C2919      C2926   1.441       .  S
C2920      C2921   1.409       .  A
C2921      C2922   1.409       .  A
C2921      H2924   1.084       .  S
C2922      C2925   1.441       .  S
C2925      N2927   1.157       .  T
C2926      N2928   1.156       .  T
C2929      C2930   1.405       .  A
C2929      C2934   1.407       .  A
C2930      C2931   1.396       .  A
C2930      H2935   1.084       .  S
C2931      C2932   1.402       .  A
C2931      C2938   1.442       .  S
C2932      C2933   1.396       .  A
C2933      C2934   1.380       .  A
C2933      H2936   1.084       .  S
C2934      C2937   1.447       .  S
C2937      N2939   1.157       .  T
C2938      N2940   1.157       .  T
C2941      C2942   1.414       .  A
C2941      C2946   1.417       .  A
C2942      C2943   1.402       .  A
C2942      H2947   1.084       .  S
C2943      C2944   1.407       .  A
C2943      C2950   1.444       .  S
C2944      C2945   1.408       .  A
C2945      C2946   1.413       .  A
C2945      H2948   1.083       .  S
C2946      C2949   1.442       .  S
C2949      N2951   1.157       .  T
C2950      N2952   1.157       .  T
C2953      C2954   1.415       .  A
C2953      C2958   1.420       .  A
C2954      C2955   1.407       .  A
C2954      H2959   1.084       .  S
C2955      C2956   1.409       .  A
C2955      C2962   1.442       .  S
C2956      C2957   1.405       .  A
C2957      C2958   1.411       .  A
C2957      H2960   1.082       .  S
C2958      C2961   1.443       .  S
C2961      N2963   1.157       .  T
C2962      N2964   1.157       .  T
C2965      C2966   1.407       .  A
C2965      C2970   1.414       .  A
C2966      C2967   1.412       .  A
C2966      H2971   1.085       .  S
C2967      C2968   1.419       .  A
C2967      C2974   1.442       .  S
C2968      C2969   1.412       .  A
C2969      C2970   1.412       .  A
C2969      H2972   1.084       .  S
C2970      C2973   1.443       .  S
C2973      N2975   1.157       .  T
C2974      N2976   1.157       .  T
C2977      C2978   1.409       .  A
C2977      C2982   1.421       .  A
C2978      C2979   1.414       .  A
C2978      H2983   1.084       .  S
C2979      C2980   1.414       .  A
C2979      C2986   1.442       .  S
C2980      C2981   1.401       .  A
C2981      C2982   1.405       .  A
C2981      H2984   1.084       .  S
C2982      C2985   1.444       .  S
C2985      N2987   1.157       .  T
C2986      N2988   1.157       .  T
C2989      C2990   1.406       .  A
C2989      C2994   1.414       .  A
C2990      C2991   1.404       .  A
C2990      H2995   1.084       .  S
C2991      C2992   1.408       .  A
C2991      C2998   1.441       .  S
C2992      C2993   1.396       .  A
C2993      C2994   1.382       .  A
C2993      H2996   1.086       .  S
C2994      C2997   1.444       .  S
C2997      N2999   1.157       .  T
C2998      N3000   1.157       .  T
C3001      C3002   1.404       .  A
C3001      C3006   1.413       .  A
C3002      C3003   1.404       .  A
C3002      H3007   1.084       .  S
C3003      C3004   1.422       .  A
C3003      C3010   1.444       .  S
C3004      C3005   1.411       .  A
C3005      C3006   1.411       .  A
C3005      H3008   1.084       .  S
C3006      C3009   1.442       .  S
C3009      N3011   1.157       .  T
C3010      N3012   1.157       .  T
C3013      C3014   1.405       .  A
C3013      C3018   1.416       .  A
C3014      C3015   1.411       .  A
C3014      H3019   1.085       .  S
C3015      C3016   1.420       .  A
C3015      C3022   1.443       .  S
C3016      C3017   1.408       .  A
C3017      C3018   1.405       .  A
C3017      H3020   1.085       .  S
C3018      C3021   1.443       .  S
C3021      N3023   1.157       .  T
C3022      N3024   1.157       .  T
C3025      C3026   1.410       .  A
C3025      C3030   1.413       .  A
C3026      C3027   1.411       .  A
C3026      H3031   1.084       .  S
C3027      C3028   1.415       .  A
C3027      C3034   1.442       .  S
C3028      C3029   1.408       .  A
C3029      C3030   1.407       .  A
C3029      H3032   1.085       .  S
C3030      C3033   1.440       .  S
C3033      N3035   1.157       .  T
C3034      N3036   1.157       .  T
C3037      C3038   1.408       .  A
C3037      C3042   1.423       .  A
C3038      C3039   1.408       .  A
C3038      H3043   1.084       .  S
C3039      C3040   1.415       .  A
C3039      C3046   1.439       .  S
C3040      C3041   1.405       .  A
C3041      C3042   1.408       .  A
C3041      H3044   1.084       .  S
C3042      C3045   1.444       .  S
C3045      N3047   1.157       .  T
C3046      N3048   1.157       .  T
C3049      C3050   1.399       .  A
C3049      C3054   1.417       .  A
C3050      C3051   1.386       .  A
C3050      H3055   1.085       .  S
C3051      C3052   1.411       .  A
C3051      C3058   1.445       .  S
C3052      C3053   1.400       .  A
C3053      C3054   1.401       .  A
C3053      H3056   1.085       .  S
C3054      C3057   1.443       .  S
C3057      N3059   1.158       .  T
C3058      N3060   1.157       .  T
C3061      C3062   1.401       .  A
C3061      C3066   1.411       .  A
C3062      C3063   1.389       .  A
C3062      H3067   1.083       .  S
C3063      C3064   1.405       .  A
C3063      C3070   1.443       .  S
C3064      C3065   1.397       .  A
C3065      C3066   1.387       .  A
C3065      H3068   1.083       .  S
C3066      C3069   1.444       .  S
C3069      N3071   1.157       .  T
C3070      N3072   1.156       .  T
C3073      C3074   1.402       .  A
C3073      C3078   1.412       .  A
C3074      C3075   1.388       .  A
C3074      H3079   1.085       .  S
C3075      C3076   1.411       .  A
C3075      C3082   1.446       .  S
C3076      C3077   1.403       .  A
C3077      C3078   1.400       .  A
C3077      H3080   1.084       .  S
C3078      C3081   1.442       .  S
C3081      N3083   1.157       .  T
C3082      N3084   1.157       .  T
C3085      C3086   1.411       .  A
C3085      C3090   1.422       .  A
C3086      C3087   1.406       .  A
C3086      H3091   1.084       .  S
C3087      C3088   1.411       .  A
C3087      C3094   1.443       .  S
C3088      C3089   1.403       .  A
C3089      C3090   1.409       .  A
C3089      H3092   1.084       .  S
C3090      C3093   1.444       .  S
C3093      N3095   1.157       .  T
C3094      N3096   1.157       .  T
C3097      C3098   1.405       .  A
C3097      C3102   1.412       .  A
C3098      C3099   1.409       .  A
C3098      H3103   1.083       .  S
C3099      C3100   1.420       .  A
C3099      C3106   1.442       .  S
C3100      C3101   1.411       .  A
C3101      C3102   1.407       .  A
C3101      H3104   1.084       .  S
C3102      C3105   1.442       .  S
C3105      N3107   1.157       .  T
C3106      N3108   1.157       .  T
C3109      C3110   1.404       .  A
C3109      C3114   1.411       .  A
C3110      C3111   1.411       .  A
C3110      H3115   1.085       .  S
C3111      C3112   1.423       .  A
C3111      C3118   1.440       .  S
C3112      C3113   1.414       .  A
C3113      C3114   1.410       .  A
C3113      H3116   1.082       .  S
C3114      C3117   1.443       .  S
C3117      N3119   1.157       .  T
C3118      N3120   1.157       .  T
C3121      C3122   1.407       .  A
C3121      C3126   1.427       .  A
C3122      C3123   1.412       .  A
C3122      H3127   1.084       .  S
C3123      C3124   1.418       .  A
C3123      C3130   1.440       .  S
C3124      C3125   1.401       .  A
C3125      C3126   1.407       .  A
C3125      H3128   1.084       .  S
C3126      C3129   1.443       .  S
C3129      N3131   1.157       .  T
C3130      N3132   1.157       .  T
C3133      C3134   1.403       .  A
C3133      C3138   1.409       .  A
C3134      C3135   1.401       .  A
C3134      H3139   1.084       .  S
C3135      C3136   1.401       .  A
C3135      C3142   1.436       .  S
C3136      C3137   1.396       .  A
C3137      C3138   1.381       .  A
C3137      H3140   1.086       .  S
C3138      C3141   1.446       .  S
C3141      N3143   1.157       .  T
C3142      N3144   1.156       .  T
C3145      C3146   1.401       .  A
C3145      C3150   1.412       .  A
C3146      C3147   1.392       .  A
C3146      H3151   1.086       .  S
C3147      C3148   1.406       .  A
C3147      C3154   1.443       .  S
C3148      C3149   1.397       .  A
C3149      C3150   1.388       .  A
C3149      H3152   1.086       .  S
C3150      C3153   1.444       .  S
C3153      N3155   1.157       .  T
C3154      N3156   1.157       .  T
C3157      C3158   1.402       .  A
C3157      C3162   1.409       .  A
C3158      C3159   1.399       .  A
C3158      H3163   1.085       .  S
C3159      C3160   1.409       .  A
C3159      C3166   1.444       .  S
C3160      C3161   1.396       .  A
C3161      C3162   1.385       .  A
C3161      H3164   1.086       .  S
C3162      C3165   1.443       .  S
C3165      N3167   1.156       .  T
C3166      N3168   1.157       .  T
C3169      C3170   1.407       .  A
C3169      C3174   1.420       .  A
C3170      C3171   1.406       .  A
C3170      H3175   1.085       .  S
C3171      C3172   1.415       .  A
C3171      C3178   1.441       .  S
C3172      C3173   1.404       .  A
C3173      C3174   1.406       .  A
C3173      H3176   1.082       .  S
C3174      C3177   1.443       .  S
C3177      N3179   1.157       .  T
C3178      N3180   1.157       .  T
C3181      C3182   1.410       .  A
C3181      C3186   1.420       .  A
C3182      C3183   1.409       .  A
C3182      H3187   1.084       .  S
C3183      C3184   1.416       .  A
C3183      C3190   1.443       .  S
C3184      C3185   1.402       .  A
C3185      C3186   1.409       .  A
C3185      H3188   1.084       .  S
C3186      C3189   1.443       .  S
C3189      N3191   1.157       .  T
C3190      N3192   1.157       .  T
C3193      C3194   1.409       .  A
C3193      C3198   1.423       .  A
C3194      C3195   1.402       .  A
C3194      H3199   1.084       .  S
C3195      C3196   1.412       .  A
C3195      C3202   1.441       .  S
C3196      C3197   1.402       .  A
C3197      C3198   1.407       .  A
C3197      H3200   1.083       .  S
C3198      C3201   1.442       .  S
C3201      N3203   1.157       .  T
C3202      N3204   1.157       .  T
C3205      C3206   1.411       .  A
C3205      C3210   1.418       .  A
C3206      C3207   1.411       .  A
C3206      H3211   1.084       .  S
C3207      C3208   1.410       .  A
C3207      C3214   1.443       .  S
C3208      C3209   1.406       .  A
C3209      C3210   1.410       .  A
C3209      H3212   1.083       .  S
C3210      C3213   1.443       .  S
C3213      N3215   1.157       .  T
C3214      N3216   1.157       .  T
C3217      C3218   1.398       .  A
C3217      C3222   1.418       .  A
C3218      C3219   1.389       .  A
C3218      H3223   1.083       .  S
C3219      C3220   1.419       .  A
C3219      C3226   1.445       .  S
C3220      C3221   1.399       .  A
C3221      C3222   1.393       .  A
C3221      H3224   1.085       .  S
C3222      C3225   1.442       .  S
C3225      N3227   1.157       .  T
C3226      N3228   1.157       .  T
C3229      C3230   1.408       .  A
C3229      C3234   1.409       .  A
C3230      C3231   1.396       .  A
C3230      H3235   1.085       .  S
C3231      C3232   1.413       .  A
C3231      C3238   1.444       .  S
C3232      C3233   1.410       .  A
C3233      C3234   1.397       .  A
C3233      H3236   1.085       .  S
C3234      C3237   1.443       .  S
C3237      N3239   1.157       .  T
C3238      N3240   1.157       .  T
C3241      C3242   1.408       .  A
C3241      C3246   1.407       .  A
C3242      C3243   1.393       .  A
C3242      H3247   1.085       .  S
C3243      C3244   1.411       .  A
C3243      C3250   1.444       .  S
C3244      C3245   1.410       .  A
C3245      C3246   1.398       .  A
C3245      H3248   1.085       .  S
C3246      C3249   1.443       .  S
C3249      N3251   1.157       .  T
C3250      N3252   1.157       .  T
C3253      C3254   1.388       .  A
C3253      C3258   1.410       .  A
C3254      C3255   1.381       .  A
C3254      H3259   1.084       .  S
C3255      C3256   1.422       .  A
C3255      C3262   1.446       .  S
C3256      C3257   1.401       .  A
C3257      C3258   1.390       .  A
C3257      H3260   1.085       .  S
C3258      C3261   1.444       .  S
C3261      N3263   1.157       .  T
C3262      N3264   1.157       .  T
