geometry optimzed in LAMMPS
_audit_creation_date              2020-12-01 
_audit_creation_method            'lammps2cif' 
_symmetry_space_group_name_H-M    'P1' 
_symmetry_Int_Tables_number       1 
_symmetry_cell_setting            triclinic 
loop_ 
_symmetry_equiv_pos_as_xyz 
  x,y,z 
_cell_length_a                    37.83420455 
_cell_length_b                    39.77568919722728 
_cell_length_c                    39.712618227876014 
_cell_angle_alpha                 93.31777267518643 
_cell_angle_beta                  89.60401739733368 
_cell_angle_gamma                 89.46359396287582 
loop_ 
_atom_site_label 
_atom_site_type_symbol 
_atom_site_fract_x 
_atom_site_fract_y 
_atom_site_fract_z 
_atom_site_charge 
C1          C  0.23341443  0.23678010  0.24023123    -0.02400
C2          C  0.10487913  0.46128355  0.43745080     0.30100
C3          C  0.10109149  0.51950492  0.47863672     0.30100
C4          C  0.12660630  0.49092818  0.42649991    -0.06100
C5          C  0.06758235  0.47711874  0.44209622    -0.06900
C6          C  0.11595640  0.45838532  0.47421468    -0.06700
C7          C  0.12534166  0.52049267  0.44697504    -0.06100
C8          C  0.06585582  0.50671754  0.46328390    -0.06900
C9          C  0.11526627  0.48765710  0.49508882    -0.06700
C10         C  0.14527430  0.54357439  0.43023485    -0.32100
N11         N  0.15638951  0.52923085  0.40001604     0.14400
C12         C  0.14537968  0.49690972  0.39782270    -0.32100
H13         H  0.14851091  0.47962951  0.37591327     0.16300
C14         C  0.03064764  0.51481374  0.46812781    -0.31100
N15         N  0.01096916  0.49138918  0.45061985     0.13100
C16         C  0.03307490  0.46812406  0.43495939    -0.31100
C17         C  0.12547549  0.47817042  0.52674845    -0.31400
N18         N  0.13011609  0.44417501  0.52554284     0.13600
H19         H  0.12826799  0.49432802  0.54937464     0.16200
C20         C  0.12425080  0.43202240  0.49357108    -0.31400
H21         H  0.12553367  0.40570793  0.48501027     0.16200
H22         H  0.02450746  0.44542600  0.42124970     0.16200
H23         H  0.15115342  0.56915632  0.43867904     0.16300
H24         H  0.02019271  0.53559537  0.48407047     0.16200
C25         C  0.23588897  0.74384775  0.65487252    -0.02400
C26         C  0.44815674  0.09801439  0.42266558     0.30100
C27         C  0.50077396  0.09478586  0.46963176     0.30100
C28         C  0.44062156  0.11639550  0.45719803    -0.06100
C29         C  0.45794349  0.06187590  0.43328496    -0.06900
C30         C  0.48416127  0.11235977  0.41293890    -0.06700
C31         C  0.46715682  0.11440020  0.48143341    -0.06100
C32         C  0.48501947  0.06084673  0.45730713    -0.06900
C33         C  0.51062659  0.11080417  0.43667257    -0.06700
C34         C  0.45014856  0.11814781  0.51242923    -0.32100
N35         N  0.41548930  0.12510811  0.50771171     0.14400
C36         C  0.40922113  0.12319380  0.47418831    -0.32100
H37         H  0.38320890  0.12391582  0.46306972     0.16300
C38         C  0.48821025  0.02834207  0.46696630    -0.31100
N39         N  0.46406706  0.00934020  0.44994093     0.13100
C40         C  0.44545089  0.02901940  0.42931009    -0.31100
C41         C  0.53915702  0.12810750  0.42481826    -0.31400
N42         N  0.53083312  0.14010580  0.39436775     0.13600
H43         H  0.56388917  0.13214383  0.43787747     0.16200
C44         C  0.49718279  0.13048086  0.38697378    -0.31400
H45         H  0.48255108  0.13745646  0.36509690     0.16200
H46         H  0.42422230  0.01976166  0.41345446     0.16200
H47         H  0.46171865  0.11430054  0.53675068     0.16300
H48         H  0.50656931  0.01902066  0.48508568     0.16200
C49         C  0.73249018  0.29157111  0.20357341    -0.02400
C50         C  0.24938271  0.26611218  0.74389642    -0.02400
C51         C  0.88162057  0.50363573  0.48421845     0.30100
C52         C  0.88210239  0.46347589  0.42504092     0.30100
C53         C  0.85848848  0.51589378  0.45547902    -0.06100
C54         C  0.91767262  0.49766335  0.46690428    -0.06900
C55         C  0.86776903  0.46736641  0.48682870    -0.06700
C56         C  0.85876078  0.49581437  0.42551010    -0.06100
C57         C  0.91813953  0.47722679  0.43707611    -0.06900
C58         C  0.86805295  0.44686655  0.45692423    -0.06700
C59         C  0.83779917  0.51228331  0.40304147    -0.32100
N60         N  0.82571298  0.54173075  0.41816696     0.14400
C61         C  0.83723887  0.54355266  0.45044441    -0.32100
H62         H  0.83166468  0.56443852  0.46835546     0.16300
C63         C  0.95321346  0.47282139  0.42765090    -0.31100
N64         N  0.97359161  0.49022740  0.45069507     0.13100
C65         C  0.95213631  0.50547765  0.47469442    -0.31100
C66         C  0.85397227  0.41621282  0.46495720    -0.31400
N67         N  0.84640713  0.41721509  0.49844907     0.13600
H68         H  0.84944293  0.39448520  0.44814585     0.16200
C69         C  0.85315067  0.44865140  0.51155543    -0.31400
H70         H  0.84674217  0.45700380  0.53719961     0.16200
H71         H  0.96092926  0.52002469  0.49687577     0.16200
H72         H  0.83204143  0.50399552  0.37729536     0.16300
H73         H  0.96310920  0.45765625  0.40605528     0.16200
C74         C  0.71857658  0.75696707  0.23201704    -0.02400
C75         C  0.71889782  0.19452845  0.66567935    -0.02400
C76         C  0.45137132  0.88777032  0.48207206     0.30100
C77         C  0.50294252  0.88741141  0.43286660     0.30100
C78         C  0.44438810  0.86519456  0.44967222    -0.06100
C79         C  0.45939719  0.92223569  0.46741480    -0.06900
C80         C  0.48857659  0.87504324  0.49214408    -0.06700
C81         C  0.47041838  0.86576779  0.42485083    -0.06100
C82         C  0.48548172  0.92194604  0.44201857    -0.06900
C83         C  0.51436170  0.87571217  0.46715604    -0.06700
C84         C  0.45913723  0.84647538  0.39731718    -0.32100
N85         N  0.42729655  0.83333903  0.40458423     0.14400
C86         C  0.41805400  0.84425261  0.43654024    -0.32100
H87         H  0.39390649  0.83732146  0.44897378     0.16300
C88         C  0.48688167  0.95416829  0.43091924    -0.31100
N89         N  0.46367096  0.97392074  0.44925221     0.13100
C90         C  0.44691559  0.95506959  0.47187318    -0.31100
C91         C  0.54463467  0.86124615  0.47888003    -0.31400
N92         N  0.53826869  0.85072545  0.51019367     0.13600
H93         H  0.56926989  0.85791157  0.46507950     0.16200
C94         C  0.50398534  0.85842465  0.51831352    -0.31400
H95         H  0.49086231  0.85046940  0.54071173     0.16200
H96         H  0.42776686  0.96463898  0.49046321     0.16200
H97         H  0.47257316  0.84317132  0.37318456     0.16300
H98         H  0.50331737  0.96333137  0.41123708     0.16200
C99         C  0.24928068  0.70441409  0.17077444    -0.02400
C100        C  0.73789428  0.69355979  0.69670324    -0.02400
C101        C  0.51013174  0.45804036  0.04715283     0.30100
C102        C  0.45732035  0.50589144  0.04269101     0.30100
C103        C  0.51340038  0.49035247  0.06995656    -0.06100
C104        C  0.50567663  0.47274463  0.01192194    -0.06900
C105        C  0.47223329  0.44661389  0.05480864    -0.06700
C106        C  0.48680006  0.51450986  0.06816113    -0.06100
C107        C  0.47867777  0.49716682  0.01027581    -0.06900
C108        C  0.44566309  0.47097451  0.05350913    -0.06700
C109        C  0.49804423  0.54272741  0.08685415    -0.32100
N110        N  0.53092491  0.53658304  0.09879475     0.14400
C111        C  0.54039526  0.50461284  0.08858410    -0.32100
H112        H  0.56611055  0.49332996  0.09215873     0.16300
C113        C  0.47700725  0.50694569  0.97773224    -0.31100
N114        N  0.50209624  0.48965557  0.95931745     0.13100
C115        C  0.51919579  0.46821685  0.97933632    -0.31100
C116        C  0.41656778  0.45832328  0.06958851    -0.31400
N117        N  0.42368639  0.42640014  0.07804594     0.13600
H118        H  0.39280398  0.47214699  0.07713014     0.16200
C119        C  0.45770490  0.41904358  0.06907992    -0.31400
H120        H  0.47147104  0.39587628  0.07389224     0.16200
H121        H  0.53825806  0.44953421  0.96999521     0.16200
H122        H  0.48408283  0.56648279  0.09050748     0.16300
H123        H  0.45785305  0.52402862  0.96771278     0.16200
C124        C  0.51912907  0.51580286  0.83636778     0.30100
C125        C  0.46316204  0.47276875  0.83857879     0.30100
C126        C  0.52037561  0.48495338  0.81121782    -0.06100
C127        C  0.51363580  0.49929035  0.87060225    -0.06900
C128        C  0.48220881  0.53128997  0.83060077    -0.06700
C129        C  0.49185731  0.46315280  0.81236311    -0.06100
C130        C  0.48464136  0.47721259  0.87146252    -0.06900
C131        C  0.45398552  0.50940177  0.83161130    -0.06700
C132        C  0.50416500  0.43165076  0.80125781    -0.32100
N133        N  0.53875267  0.43348275  0.79265323     0.14400
C134        C  0.54900138  0.46574078  0.79944115    -0.32100
H135        H  0.57598250  0.47440645  0.79857103     0.16300
C136        C  0.47820997  0.47141395  0.90478824    -0.31100
N137        N  0.50299535  0.48738656  0.92385834     0.13100
C138        C  0.52391416  0.50555195  0.90388142    -0.31100
C139        C  0.42405490  0.52706130  0.82322064    -0.31400
N140        N  0.43328455  0.55898933  0.81670034     0.13600
H141        H  0.39760979  0.51711018  0.82094769     0.16200
C142        C  0.46867658  0.56198177  0.82173842    -0.31400
H143        H  0.48376818  0.58430219  0.81735383     0.16200
H144        H  0.54288728  0.52386853  0.91332489     0.16200
H145        H  0.48982147  0.40839712  0.80309920     0.16300
H146        H  0.45553541  0.45924214  0.91518345     0.16200
N147        N  0.02240786  0.04923923  0.99163717    -0.06000
N148        N  0.02990644  0.07239710  0.01582728    -0.58100
N149        N  0.04629397  0.02019684  0.91410970    -0.05700
N150        N  0.07217149  0.02622942  0.89283639    -0.60300
N151        N  0.02218081  0.04421288  0.91400527    -0.05300
N152        N  0.03105495  0.06679843  0.89247122    -0.58100
N153        N  0.04599379  0.02464065  0.99117675    -0.05000
N154        N  0.06979892  0.03052157  0.01480074    -0.60600
C155        C  0.05953969  0.06024841  0.03019043     0.96200
C156        C  0.06218432  0.05523063  0.87918024     0.95900
N157        N  0.01759278  0.91763704  0.91556661    -0.06200
N158        N  0.02208291  0.89387957  0.89121455    -0.58700
N159        N  0.04501105  0.94529942  0.99153663    -0.04300
N160        N  0.07102205  0.93811007  0.01197922    -0.60000
N161        N  0.01988621  0.92278911  0.99288580    -0.06200
N162        N  0.02848795  0.89978495  0.01417650    -0.59000
N163        N  0.04267228  0.94026683  0.91426335    -0.04000
N164        N  0.06476736  0.93224197  0.88909836    -0.60000
Mn165      Mn  0.04574047  0.98256432  0.95268137     1.18400
C166        C  0.05154528  0.90331818  0.87478667     0.98200
C167        C  0.06037245  0.90977193  0.02618864     0.98900
N168        N  0.93819280  0.04564566  0.91377366    -0.06200
N169        N  0.93292228  0.06455362  0.88786996    -0.62600
N170        N  0.91308247  0.03062044  0.99236775    -0.05000
N171        N  0.88896039  0.04062176  0.01511168    -0.63200
N172        N  0.93836155  0.05302631  0.99130020    -0.05800
N173        N  0.93192986  0.07863938  0.01319112    -0.62800
N174        N  0.91337473  0.02272785  0.91492744    -0.04600
N175        N  0.89099297  0.02542030  0.88989450    -0.63500
Mn176      Mn  0.98024628  0.04898496  0.95266681     1.10700
C177        C  0.90341785  0.05152133  0.87312538     0.99500
C178        C  0.90116464  0.07052898  0.02811127     0.99500
N179        N  0.93556060  0.92675080  0.99579317    -0.05800
N180        N  0.92908002  0.90712506  0.02082849    -0.61100
N181        N  0.91046190  0.94372482  0.91771076    -0.05100
N182        N  0.88668758  0.93594980  0.89430711    -0.57900
N183        N  0.93451322  0.91972168  0.91843049    -0.06400
N184        N  0.92761309  0.89516179  0.89578852    -0.60700
N185        N  0.91164287  0.95100666  0.99544849    -0.05400
N186        N  0.88859247  0.94842673  0.02028500    -0.57900
Mn187      Mn  0.97681130  0.92089515  0.95587030     1.20200
Mn188      Mn  0.91113833  0.98707872  0.95519356     1.10100
Cl189      Cl  0.97848273  0.98490544  0.95417803    -0.85900
C190        C  0.89983771  0.92105602  0.03607330     0.96500
C191        C  0.89786399  0.90559039  0.88073431     0.96300
C192        C  0.75558696  0.71833737  0.72316285    -0.03100
C193        C  0.74929530  0.71824488  0.75831717    -0.05700
C194        C  0.76676668  0.74061391  0.78085837    -0.20800
C195        C  0.78950356  0.76498276  0.76909194     0.25000
C196        C  0.79424900  0.76686837  0.73420381    -0.18300
C197        C  0.77720407  0.74425317  0.71167310    -0.08300
C198        C  0.80889774  0.78722792  0.79376655    -0.18600
C199        C  0.81747845  0.81918818  0.78796598    -0.23400
C200        C  0.83775115  0.84101026  0.81237374     0.27000
C201        C  0.83194524  0.87600859  0.81405346    -0.20100
C202        C  0.85116160  0.89716215  0.83649951    -0.09800
C203        C  0.87719739  0.88369886  0.85698366    -0.10300
C204        C  0.88349439  0.84876436  0.85478162    -0.03300
C205        C  0.86385249  0.82760731  0.83290166    -0.18400
H206        H  0.73056780  0.70154400  0.76900511     0.10700
H207        H  0.76206684  0.73920604  0.80768052     0.10800
H208        H  0.81183208  0.78523634  0.72423464     0.10400
H209        H  0.78170081  0.74632617  0.68491141     0.11500
H210        H  0.81500057  0.77733581  0.81800443     0.11600
H211        H  0.80816805  0.83022359  0.76522857     0.13500
H212        H  0.81225849  0.88694405  0.79818304     0.10100
H213        H  0.84598871  0.92403146  0.83754704     0.12200
H214        H  0.90348800  0.83768551  0.87020002     0.08800
H215        H  0.86970043  0.80087432  0.83157836     0.11500
C216        C  0.71427525  0.66680195  0.71305808    -0.03100
C217        C  0.72820658  0.64529282  0.73703416    -0.05700
C218        C  0.70640758  0.62268354  0.75338255    -0.20800
C219        C  0.67078512  0.61929251  0.74428191     0.25000
C220        C  0.65776214  0.63795294  0.71823652    -0.18300
C221        C  0.67896186  0.66111576  0.70282490    -0.08300
C222        C  0.64651746  0.59495601  0.75903614    -0.18600
C223        C  0.64104320  0.59233998  0.79243142    -0.23400
C224        C  0.60967794  0.57419266  0.80537533     0.27000
C225        C  0.57833489  0.57220036  0.78667430    -0.20100
C226        C  0.54954941  0.55435182  0.79782105    -0.09800
C227        C  0.54990168  0.53907633  0.82893929    -0.10300
C228        C  0.58093309  0.54172074  0.84831998    -0.03300
C229        C  0.61040015  0.55940253  0.83674950    -0.18400
H230        H  0.75578027  0.64700702  0.74403442     0.10700
H231        H  0.71749699  0.60740627  0.77246231     0.10800
H232        H  0.63076826  0.63473605  0.70982589     0.10400
H233        H  0.66728977  0.67390987  0.68232669     0.11500
H234        H  0.62929577  0.58161030  0.74119958     0.11600
H235        H  0.65859388  0.60507911  0.81043825     0.13500
H236        H  0.57575077  0.58427703  0.76310083     0.10100
H237        H  0.52701010  0.55166416  0.78126365     0.12200
H238        H  0.58334202  0.52889596  0.87139505     0.08800
H239        H  0.63415492  0.56063249  0.85181411     0.11500
C240        C  0.08469791  0.88764254  0.04409611    -0.03100
C241        C  0.11942573  0.89783564  0.05129317    -0.05700
C242        C  0.14304466  0.87625298  0.06656557    -0.20800
C243        C  0.13263417  0.84393913  0.07482566     0.25000
C244        C  0.09757032  0.83400433  0.06818303    -0.18300
C245        C  0.07396159  0.85560627  0.05290712    -0.08300
C246        C  0.15869439  0.82206643  0.09142027    -0.18600
C247        C  0.15533535  0.78847423  0.09284260    -0.23400
C248        C  0.18006676  0.76719241  0.11147963     0.27000
C249        C  0.16714626  0.73777029  0.12462911    -0.20100
C250        C  0.18892386  0.71743762  0.14329142    -0.09800
C251        C  0.22446342  0.72615387  0.14981559    -0.10300
C252        C  0.23799321  0.75428590  0.13402138    -0.03300
C253        C  0.21600053  0.77492064  0.11568952    -0.18400
H254        H  0.12847956  0.92241015  0.04486262     0.10700
H255        H  0.16969775  0.88475820  0.07169476     0.10800
H256        H  0.08786478  0.80988565  0.07513639     0.10400
H257        H  0.04729129  0.84713118  0.04786715     0.11500
H258        H  0.18137294  0.83435083  0.10315079     0.11600
H259        H  0.13277208  0.77590924  0.08131981     0.13500
H260        H  0.13983636  0.73060704  0.12073512     0.10100
H261        H  0.17763488  0.69466385  0.15209716     0.12200
H262        H  0.26561909  0.76075687  0.13667631     0.08800
H263        H  0.22734036  0.79655082  0.10448135     0.11500
C264        C  0.27588398  0.68769596  0.14478541    -0.03100
C265        C  0.31198134  0.69644057  0.14392535    -0.05700
C266        C  0.33566333  0.67936025  0.12176662    -0.20800
C267        C  0.32423023  0.65365838  0.09886574     0.25000
C268        C  0.28774027  0.64698484  0.09719951    -0.18300
C269        C  0.26395040  0.66408644  0.11956507    -0.08300
C270        C  0.35186056  0.63349361  0.07938826    -0.18600
C271        C  0.34565805  0.60642351  0.05826405    -0.23400
C272        C  0.37427754  0.58236620  0.04662636     0.27000
C273        C  0.36575233  0.54842878  0.04006046    -0.20100
C274        C  0.39241631  0.52398773  0.03562011    -0.09800
C275        C  0.42826382  0.53268639  0.03919453    -0.10300
C276        C  0.43655231  0.56713352  0.03942230    -0.03300
C277        C  0.40992217  0.59178271  0.04383099    -0.18400
H278        H  0.32249506  0.71639774  0.16042929     0.10700
H279        H  0.36338006  0.68589429  0.12307858     0.10800
H280        H  0.27725322  0.62813071  0.07942353     0.10400
H281        H  0.23617607  0.65788236  0.11813307     0.11500
H282        H  0.37908128  0.63951181  0.08550476     0.11600
H283        H  0.31874678  0.59896747  0.05278719     0.13500
H284        H  0.33840646  0.54055269  0.03987605     0.10100
H285        H  0.38463849  0.49827483  0.02981477     0.12200
H286        H  0.46371786  0.57507408  0.03763012     0.08800
H287        H  0.41742746  0.61799443  0.04587734     0.11500
C288        C  0.71496111  0.71700674  0.67537981    -0.03100
C289        C  0.68753886  0.73627022  0.69165042    -0.05700
C290        C  0.66543390  0.75703888  0.67376568    -0.20800
C291        C  0.67025162  0.75997445  0.63906732     0.25000
C292        C  0.69886553  0.74264344  0.62291007    -0.18300
C293        C  0.72096713  0.72163053  0.64078290    -0.08300
C294        C  0.64518020  0.78176024  0.62104484    -0.18600
C295        C  0.63969143  0.77854899  0.58749804    -0.23400
C296        C  0.61340441  0.79855870  0.56890817     0.27000
C297        C  0.61520548  0.79657318  0.53354929    -0.20100
C298        C  0.59059676  0.81345499  0.51446698    -0.09800
C299        C  0.56328465  0.83291507  0.53019636    -0.10300
C300        C  0.56127763  0.83498435  0.56563541    -0.03300
C301        C  0.58602872  0.81803044  0.58483594    -0.18400
H302        H  0.68265474  0.73443648  0.71838475     0.10700
H303        H  0.64410095  0.77054769  0.68710506     0.10800
H304        H  0.70480547  0.74558349  0.59658273     0.10400
H305        H  0.74295809  0.70963943  0.62724480     0.11500
H306        H  0.62989962  0.80007455  0.63643936     0.11600
H307        H  0.65479433  0.75976681  0.57248127     0.13500
H308        H  0.63571216  0.78163032  0.52049052     0.10100
H309        H  0.59270799  0.81072918  0.48728653     0.12200
H310        H  0.54073203  0.84994955  0.57853638     0.08800
H311        H  0.58304336  0.81992094  0.61195096     0.11500
C312        C  0.40644183  0.81351851  0.38083059    -0.03100
C313        C  0.42323371  0.79114458  0.35708460    -0.05700
C314        C  0.40405298  0.77500441  0.33117374    -0.20800
C315        C  0.36768054  0.78107587  0.32810258     0.25000
C316        C  0.35039358  0.80229913  0.35275896    -0.18300
C317        C  0.36967836  0.81833737  0.37897245    -0.08300
C318        C  0.34920338  0.76425945  0.29901952    -0.18600
C319        C  0.31821114  0.77476263  0.28654303    -0.23400
C320        C  0.30134467  0.75738671  0.25666999     0.27000
C321        C  0.27653803  0.77470786  0.23786860    -0.20100
C322        C  0.26006014  0.75875586  0.20982515    -0.09800
C323        C  0.26858122  0.72502578  0.19940251    -0.10300
C324        C  0.29287033  0.70777659  0.21922475    -0.03300
C325        C  0.30875615  0.72348007  0.24729497    -0.18400
H326        H  0.45145068  0.78660639  0.35827365     0.10700
H327        H  0.41792656  0.75832557  0.31290246     0.10800
H328        H  0.32216405  0.80670877  0.35185994     0.10400
H329        H  0.35614203  0.83548930  0.39700221     0.11500
H330        H  0.36330571  0.74342152  0.28602132     0.11600
H331        H  0.30558141  0.79753531  0.29738284     0.13500
H332        H  0.26956395  0.80062409  0.24513170     0.10100
H333        H  0.23990401  0.77275367  0.19741729     0.12200
H334        H  0.29918061  0.68151052  0.21314566     0.08800
H335        H  0.32614345  0.70843034  0.26196068     0.11500
C336        C  0.88516876  0.06522944  0.84390783    -0.03100
C337        C  0.85751365  0.04711280  0.82812926    -0.05700
C338        C  0.83929849  0.06012293  0.80119520    -0.20800
C339        C  0.84771270  0.09185058  0.78997266     0.25000
C340        C  0.87558070  0.10995467  0.80545155    -0.18300
C341        C  0.89435661  0.09660132  0.83201457    -0.08300
C342        C  0.82683090  0.10548169  0.76225086    -0.18600
C343        C  0.81564074  0.13769334  0.76329728    -0.23400
C344        C  0.79065423  0.15048718  0.73829882     0.27000
C345        C  0.76278068  0.17153284  0.74976990    -0.20100
C346        C  0.73896918  0.18460818  0.72709716    -0.09800
C347        C  0.74358336  0.17881904  0.69181160    -0.10300
C348        C  0.77096498  0.15635255  0.68064625    -0.03300
C349        C  0.79423021  0.14241936  0.70354570    -0.18400
H350        H  0.84987866  0.02281766  0.83664687     0.10700
H351        H  0.81796859  0.04571872  0.78959897     0.10800
H352        H  0.88294568  0.13428785  0.79687860     0.10400
H353        H  0.91562025  0.11105039  0.84360342     0.11500
H354        H  0.81720817  0.08790138  0.74251357     0.11600
H355        H  0.82198607  0.15427670  0.78508871     0.13500
H356        H  0.75896322  0.17734086  0.77654366     0.10100
H357        H  0.71693118  0.19904444  0.73782580     0.12200
H358        H  0.77475561  0.15016193  0.65394319     0.08800
H359        H  0.81549627  0.12603155  0.69403753     0.11500
C360        C  0.69219250  0.22036159  0.68279361    -0.03100
C361        C  0.65534060  0.21967820  0.67685152    -0.05700
C362        C  0.63297963  0.24517358  0.69048556    -0.20800
C363        C  0.64646885  0.27256623  0.70989284     0.25000
C364        C  0.68313504  0.27429687  0.71492355    -0.18300
C365        C  0.70551060  0.24884395  0.70135061    -0.08300
C366        C  0.62171151  0.29977328  0.72244369    -0.18600
C367        C  0.62910627  0.32214801  0.74814568    -0.23400
C368        C  0.60493991  0.35018710  0.75972746     0.27000
C369        C  0.61928240  0.37848866  0.77717096    -0.20100
C370        C  0.59773071  0.40574895  0.78809930    -0.09800
C371        C  0.56116603  0.40522594  0.78197996    -0.10300
C372        C  0.54669000  0.37650103  0.76520722    -0.03300
C373        C  0.56823558  0.34922977  0.75431191    -0.18400
H374        H  0.64336354  0.20064411  0.66037079     0.10700
H375        H  0.60493765  0.24378448  0.68523493     0.10800
H376        H  0.69500557  0.29573619  0.72826661     0.10400
H377        H  0.73372019  0.25152392  0.70499747     0.11500
H378        H  0.59653080  0.30127491  0.70969349     0.11600
H379        H  0.65428421  0.32069275  0.76089489     0.13500
H380        H  0.64738637  0.37966997  0.78208934     0.10100
H381        H  0.60976375  0.42700026  0.80160871     0.12200
H382        H  0.51866143  0.37523082  0.76008604     0.08800
H383        H  0.55587739  0.32747018  0.74204747     0.11500
C384        C  0.74452188  0.77687192  0.21027441    -0.03100
C385        C  0.77232442  0.75958413  0.19255016    -0.05700
C386        C  0.79522446  0.77628223  0.17147901    -0.20800
C387        C  0.79077839  0.81072100  0.16663251     0.25000
C388        C  0.76213241  0.82786290  0.18276746    -0.18300
C389        C  0.73930241  0.81121688  0.20393721    -0.08300
C390        C  0.81527476  0.82703432  0.14300707    -0.18600
C391        C  0.81809657  0.86064961  0.14058660    -0.23400
C392        C  0.84077232  0.87619044  0.11497819     0.27000
C393        C  0.83165267  0.90829366  0.10461830    -0.20100
C394        C  0.85099603  0.92300899  0.07923452    -0.09800
C395        C  0.88031172  0.90615277  0.06401284    -0.10300
C396        C  0.89037286  0.87466932  0.07532519    -0.03300
C397        C  0.87088719  0.85983773  0.10054928    -0.18400
H398        H  0.77632448  0.73285895  0.19509709     0.10700
H399        H  0.81643423  0.76207704  0.15869249     0.10800
H400        H  0.75629848  0.85388204  0.17843780     0.10400
H401        H  0.71690824  0.82549506  0.21413446     0.11500
H402        H  0.83117556  0.81026005  0.12643543     0.11600
H403        H  0.80211135  0.87771747  0.15671881     0.13500
H404        H  0.80891056  0.92169385  0.11560811     0.10100
H405        H  0.84279468  0.94746861  0.07131745     0.12200
H406        H  0.91310785  0.86125539  0.06437676     0.08800
H407        H  0.87966178  0.83568650  0.10869669     0.11500
C408        C  0.55398170  0.56079004  0.11542428    -0.03100
C409        C  0.58092486  0.55004297  0.13658781    -0.05700
C410        C  0.60459453  0.57311033  0.15128640    -0.20800
C411        C  0.60218144  0.60733289  0.14486523     0.25000
C412        C  0.57488662  0.61833383  0.12419287    -0.18300
C413        C  0.55102658  0.59525092  0.10960400    -0.08300
C414        C  0.62772438  0.63081536  0.16137138    -0.18600
C415        C  0.63783698  0.65986836  0.14850680    -0.23400
C416        C  0.66266202  0.68335388  0.16633802     0.27000
C417        C  0.66120227  0.71772671  0.16037062    -0.20100
C418        C  0.68121096  0.74086209  0.17985714    -0.09800
C419        C  0.70190896  0.73032168  0.20687788    -0.10300
C420        C  0.70689852  0.69527037  0.20929184    -0.03300
C421        C  0.68736893  0.67221121  0.18953604    -0.18400
H422        H  0.58361925  0.52378244  0.14190305     0.10700
H423        H  0.62514065  0.56411915  0.16749436     0.10800
H424        H  0.57160091  0.64470712  0.11954931     0.10400
H425        H  0.53077719  0.60433542  0.09322094     0.11500
H426        H  0.63874049  0.62338017  0.18498956     0.11600
H427        H  0.62656489  0.66744004  0.12503291     0.13500
H428        H  0.64342156  0.72688041  0.14162518     0.10100
H429        H  0.67836561  0.76741852  0.17565158     0.12200
H430        H  0.72547444  0.68513316  0.22666807     0.08800
H431        H  0.69157538  0.64567441  0.19282639     0.11500
C432        C  0.68989820  0.78026278  0.24958089    -0.03100
C433        C  0.65330261  0.77410314  0.24630464    -0.05700
C434        C  0.62844747  0.79364229  0.26466090    -0.20800
C435        C  0.63889686  0.81931040  0.28792267     0.25000
C436        C  0.67513295  0.82578815  0.29181418    -0.18300
C437        C  0.70022092  0.80636780  0.27306699    -0.08300
C438        C  0.61105343  0.83502307  0.31023645    -0.18600
C439        C  0.61568662  0.86035872  0.33369213    -0.23400
C440        C  0.58775472  0.86825019  0.35935677     0.27000
C441        C  0.58091945  0.90144919  0.37164705    -0.20100
C442        C  0.55369104  0.90844421  0.39532217    -0.09800
C443        C  0.53257040  0.88232859  0.40667586    -0.10300
C444        C  0.54193476  0.84895840  0.39624699    -0.03300
C445        C  0.56870425  0.84203423  0.37278202    -0.18400
H446        H  0.64311502  0.75306483  0.23117868     0.10700
H447        H  0.60075713  0.78745239  0.26179788     0.10800
H448        H  0.68442498  0.84477073  0.31015781     0.10400
H449        H  0.72799316  0.81118514  0.27735027     0.11500
H450        H  0.58511649  0.82351176  0.30854332     0.11600
H451        H  0.63988023  0.87475113  0.33478656     0.13500
H452        H  0.59655957  0.92191666  0.36289183     0.10100
H453        H  0.55062630  0.93392038  0.40545302     0.12200
H454        H  0.52848823  0.82788450  0.40650816     0.08800
H455        H  0.57483324  0.81595235  0.36554080     0.11500
C456        C  0.88216032  0.52698290  0.51655286    -0.03100
C457        C  0.88169461  0.51432884  0.54888722    -0.05700
C458        C  0.87011521  0.53456597  0.57684996    -0.20800
C459        C  0.86173993  0.56861590  0.57359122     0.25000
C460        C  0.86973450  0.58290533  0.54289443    -0.18300
C461        C  0.88086633  0.56228112  0.51488415    -0.08300
C462        C  0.84087941  0.58694684  0.60087845    -0.18600
C463        C  0.84013123  0.62061268  0.60639878    -0.23400
C464        C  0.81475893  0.63729163  0.63077430     0.27000
C465        C  0.82680959  0.65948487  0.65666461    -0.20100
C466        C  0.80287690  0.67616557  0.67909718    -0.09800
C467        C  0.76584302  0.67307307  0.67471392    -0.10300
C468        C  0.75426764  0.64961483  0.64910495    -0.03300
C469        C  0.77833172  0.63191656  0.62760435    -0.18400
H470        H  0.88952389  0.48871940  0.55267490     0.10700
H471        H  0.86648525  0.52329850  0.60081136     0.10800
H472        H  0.86502919  0.60939851  0.53966165     0.10400
H473        H  0.88591240  0.57374960  0.49131265     0.11500
H474        H  0.82434458  0.57194944  0.61662323     0.11600
H475        H  0.85841987  0.63622886  0.59324310     0.13500
H476        H  0.85489492  0.66346682  0.65992325     0.10100
H477        H  0.81402030  0.69142262  0.69958276     0.12200
H478        H  0.72630176  0.64565217  0.64516020     0.08800
H479        H  0.76842038  0.61477586  0.60774842     0.11500
C480        C  0.73881237  0.21613234  0.64039195    -0.03100
C481        C  0.71876866  0.23101746  0.61517866    -0.05700
C482        C  0.73399576  0.25249114  0.59295427    -0.20800
C483        C  0.76969570  0.26089399  0.59543704     0.25000
C484        C  0.79023845  0.24657962  0.62048196    -0.18300
C485        C  0.77494875  0.22464878  0.64284302    -0.08300
C486        C  0.78350512  0.28519475  0.57159274    -0.18600
C487        C  0.81204559  0.30458292  0.57729320    -0.23400
C488        C  0.82134216  0.33267965  0.55571345     0.27000
C489        C  0.84075620  0.35968256  0.56999569    -0.20100
C490        C  0.84844947  0.38747108  0.55137086    -0.09800
C491        C  0.83712724  0.38889595  0.51779178    -0.10300
C492        C  0.81843196  0.36149710  0.50313370    -0.03300
C493        C  0.81072293  0.33363385  0.52180405    -0.18400
H494        H  0.69079551  0.22598346  0.61277215     0.10700
H495        H  0.71741992  0.26323226  0.57411584     0.10800
H496        H  0.81801529  0.25225386  0.62302363     0.10400
H497        H  0.79144319  0.21543055  0.66244296     0.11500
H498        H  0.76705405  0.28963554  0.55000701     0.11600
H499        H  0.82699058  0.30226034  0.60028025     0.13500
H500        H  0.84962094  0.35950966  0.59587357     0.10100
H501        H  0.86381802  0.40764921  0.56316755     0.12200
H502        H  0.80957062  0.36165891  0.47731633     0.08800
H503        H  0.79672666  0.31288967  0.50939255     0.11500
C504        C  0.80906941  0.56907742  0.40164149    -0.03100
C505        C  0.78649307  0.59206396  0.41967542    -0.05700
C506        C  0.77295587  0.62030026  0.40443872    -0.20800
C507        C  0.78221428  0.62655038  0.37110821     0.25000
C508        C  0.80421415  0.60322774  0.35283014    -0.18300
C509        C  0.81741813  0.57482683  0.36791599    -0.08300
C510        C  0.76684595  0.65629625  0.35524620    -0.18600
C511        C  0.78353062  0.67209860  0.33060014    -0.23400
C512        C  0.76667718  0.69824725  0.31042226     0.27000
C513        C  0.78811671  0.71857596  0.29115223    -0.20100
C514        C  0.77332668  0.73950017  0.26762463    -0.09800
C515        C  0.73660316  0.73936691  0.26152460    -0.10300
C516        C  0.71515345  0.72105089  0.28321987    -0.03300
C517        C  0.72986160  0.70074974  0.30707502    -0.18400
H518        H  0.77935429  0.58820226  0.44558588     0.10700
H519        H  0.75555201  0.63756538  0.41887445     0.10800
H520        H  0.81094928  0.60663860  0.32672970     0.10400
H521        H  0.83500305  0.55784243  0.35341784     0.11500
H522        H  0.74120775  0.66534956  0.36440785     0.11600
H523        H  0.81057158  0.66485153  0.32405951     0.13500
H524        H  0.81658979  0.71761776  0.29368159     0.10100
H525        H  0.79113133  0.75473598  0.25382052     0.12200
H526        H  0.68675920  0.72071791  0.28014561     0.08800
H527        H  0.71221071  0.68549337  0.32114944     0.11500
C528        C  0.22401544  0.24378731  0.76350272    -0.03100
C529        C  0.18766490  0.25135906  0.76812748    -0.05700
C530        C  0.16543885  0.22963644  0.78452109    -0.20800
C531        C  0.17871974  0.20006342  0.79740907     0.25000
C532        C  0.21532157  0.19371724  0.79554395    -0.18300
C533        C  0.23766104  0.21559665  0.77931881    -0.08300
C534        C  0.15359174  0.17715884  0.81335044    -0.18600
C535        C  0.15942456  0.14385120  0.81533279    -0.23400
C536        C  0.13366684  0.12096526  0.83051991     0.27000
C537        C  0.14613619  0.09104901  0.84355634    -0.20100
C538        C  0.12287673  0.06914847  0.85862462    -0.09800
C539        C  0.08655626  0.07671249  0.86081124    -0.10300
C540        C  0.07387807  0.10610355  0.84687524    -0.03300
C541        C  0.09709863  0.12793112  0.83172349    -0.18400
H542        H  0.17598446  0.27413327  0.75945926     0.10700
H543        H  0.13751401  0.23582623  0.78679241     0.10800
H544        H  0.22689335  0.17210976  0.80678887     0.10400
H545        H  0.26572314  0.20993440  0.77806351     0.11500
H546        H  0.12889714  0.18823540  0.82282352     0.11600
H547        H  0.18418085  0.13276024  0.80597807     0.13500
H548        H  0.17411671  0.08490564  0.84265395     0.10100
H549        H  0.13343408  0.04672264  0.86920573     0.12200
H550        H  0.04595048  0.11234547  0.84786500     0.08800
H551        H  0.08617784  0.14999499  0.82079707     0.11500
C552        C  0.43254928  0.44813580  0.83502382    -0.03100
C553        C  0.41259178  0.44786869  0.80518114    -0.05700
C554        C  0.38856302  0.42239054  0.79729407    -0.20800
C555        C  0.38371010  0.39628912  0.81890787     0.25000
C556        C  0.40313203  0.39620292  0.84887914    -0.18300
C557        C  0.42782818  0.42151610  0.85653168    -0.08300
C558        C  0.36149806  0.36764249  0.80727672    -0.18600
C559        C  0.34123757  0.35000164  0.82768345    -0.23400
C560        C  0.31850010  0.32320196  0.81269960     0.27000
C561        C  0.28181619  0.32513846  0.81713344    -0.20100
C562        C  0.25984779  0.30465467  0.79670018    -0.09800
C563        C  0.27422356  0.28234439  0.77100400    -0.10300
C564        C  0.31116340  0.27691554  0.77084498    -0.03300
C565        C  0.33304579  0.29778248  0.79078592    -0.18400
H566        H  0.41702801  0.46646617  0.78680903     0.10700
H567        H  0.37449229  0.42250349  0.77361848     0.10800
H568        H  0.40096734  0.37543826  0.86520845     0.10400
H569        H  0.44476696  0.41837561  0.87777590     0.11500
H570        H  0.36030366  0.36187076  0.78018236     0.11600
H571        H  0.33880817  0.35739647  0.85436464     0.13500
H572        H  0.27012415  0.34416926  0.83449492     0.10100
H573        H  0.23150866  0.30833470  0.79888000     0.12200
H574        H  0.32365842  0.25774428  0.75433825     0.08800
H575        H  0.36145727  0.29502603  0.78811137     0.11500
C576        C  0.75441806  0.26543448  0.18127247    -0.03100
C577        C  0.77968732  0.27702032  0.15843137    -0.05700
C578        C  0.80070487  0.25452914  0.13846164    -0.20800
C579        C  0.79776893  0.21961076  0.14092648     0.25000
C580        C  0.77385557  0.20780648  0.16474003    -0.18300
C581        C  0.75281111  0.23028613  0.18472548    -0.08300
C582        C  0.82106486  0.19675612  0.11911582    -0.18600
C583        C  0.81654082  0.16314642  0.11449292    -0.23400
C584        C  0.83939887  0.14014619  0.09244462     0.27000
C585        C  0.82763292  0.10720796  0.08465271    -0.20100
C586        C  0.84779870  0.08451517  0.06409564    -0.09800
C587        C  0.88040821  0.09417054  0.05087799    -0.10300
C588        C  0.89262269  0.12688191  0.05900521    -0.03300
C589        C  0.87245920  0.14962204  0.07960941    -0.18400
H590        H  0.78289122  0.30377928  0.15588446     0.10700
H591        H  0.81940385  0.26455496  0.12094897     0.10800
H592        H  0.77176698  0.18131355  0.16894089     0.10400
H593        H  0.73623024  0.21968407  0.20353549     0.11500
H594        H  0.84198603  0.20865390  0.10551493     0.11600
H595        H  0.79420109  0.15162884  0.12635280     0.13500
H596        H  0.80249262  0.09899044  0.09434889     0.10100
H597        H  0.83775230  0.05944880  0.05841740     0.12200
H598        H  0.91779144  0.13500175  0.04932298     0.08800
H599        H  0.88323597  0.17429225  0.08552164     0.11500
C600        C  0.53884943  0.43246503  0.05638573    -0.03100
C601        C  0.56769556  0.42203265  0.03558247    -0.05700
C602        C  0.59502077  0.40176859  0.04794863    -0.20800
C603        C  0.59446415  0.39191221  0.08148484     0.25000
C604        C  0.56502989  0.40124879  0.10168135    -0.18300
C605        C  0.53825715  0.42148713  0.08958093    -0.08300
C606        C  0.62448315  0.37201525  0.09520703    -0.18600
C607        C  0.63295066  0.37417631  0.12841183    -0.23400
C608        C  0.66087134  0.35415493  0.14522823     0.27000
C609        C  0.66642944  0.36091986  0.17990888    -0.20100
C610        C  0.69024038  0.34170924  0.19780943    -0.09800
C611        C  0.71034716  0.31532727  0.18168742    -0.10300
C612        C  0.70456165  0.30860518  0.14666024    -0.03300
C613        C  0.68041125  0.32774183  0.12876957    -0.18400
H614        H  0.57027504  0.43040036  0.01042986     0.10700
H615        H  0.61723268  0.39472123  0.03162343     0.10800
H616        H  0.56257381  0.39324782  0.12715852     0.10400
H617        H  0.51719315  0.42952596  0.10690317     0.11500
H618        H  0.64007738  0.35622733  0.07747129     0.11600
H619        H  0.61840324  0.39218216  0.14489876     0.13500
H620        H  0.65150345  0.38073265  0.19360005     0.10100
H621        H  0.69240789  0.34698601  0.22477227     0.12200
H622        H  0.71712578  0.28747537  0.13293879     0.08800
H623        H  0.67647254  0.32091766  0.10233952     0.11500
C624        C  0.88263436  0.44221010  0.39119202    -0.03100
C625        C  0.88125792  0.45783482  0.36028622    -0.05700
C626        C  0.87106618  0.43974576  0.33059385    -0.20800
C627        C  0.86405749  0.40509292  0.33051298     0.25000
C628        C  0.87246493  0.38840571  0.35984674    -0.18300
C629        C  0.88247370  0.40675903  0.38947377    -0.08300
C630        C  0.84690359  0.38815064  0.30003726    -0.18600
C631        C  0.83336089  0.35672852  0.29905711    -0.23400
C632        C  0.81106522  0.34136211  0.27121159     0.27000
C633        C  0.80569406  0.30647921  0.27008776    -0.20100
C634        C  0.78142988  0.29117944  0.24779989    -0.09800
C635        C  0.76075397  0.31019538  0.22610564    -0.10300
C636        C  0.76824969  0.34495058  0.22546213    -0.03300
C637        C  0.79263679  0.36036236  0.24798560    -0.18400
H638        H  0.88607523  0.48452146  0.35934612     0.10700
H639        H  0.86718396  0.45324236  0.30796481     0.10800
H640        H  0.87101559  0.36134687  0.36049311     0.10400
H641        H  0.89018251  0.39299135  0.41085586     0.11500
H642        H  0.84335862  0.40317660  0.27835378     0.11600
H643        H  0.83738553  0.34132020  0.32032764     0.13500
H644        H  0.81970384  0.29096558  0.28723381     0.10100
H645        H  0.77768458  0.26426076  0.24843079     0.12200
H646        H  0.75527900  0.36064047  0.20793010     0.08800
H647        H  0.79597040  0.38730726  0.24774537     0.11500
C648        C  0.53148012  0.09400042  0.49439831    -0.03100
C649        C  0.53432049  0.11832806  0.52142838    -0.05700
C650        C  0.56310500  0.11825936  0.54319978    -0.20800
C651        C  0.59073313  0.09470832  0.53784492     0.25000
C652        C  0.58916463  0.07157648  0.50986248    -0.18300
C653        C  0.55986660  0.07120717  0.48839325    -0.08300
C654        C  0.62315416  0.09710723  0.55870732    -0.18600
C655        C  0.62215241  0.10749416  0.59163531    -0.23400
C656        C  0.65327415  0.12071582  0.61070325     0.27000
C657        C  0.65141572  0.12446556  0.64605350    -0.20100
C658        C  0.67532274  0.14518560  0.66409003    -0.09800
C659        C  0.70000678  0.16444927  0.64687396    -0.10300
C660        C  0.70552422  0.15579116  0.61217767    -0.03300
C661        C  0.68203102  0.13482661  0.59421459    -0.18400
H662        H  0.51522017  0.13854410  0.52518252     0.10700
H663        H  0.56453421  0.13781620  0.56323540     0.10800
H664        H  0.61077299  0.05402562  0.50443437     0.10400
H665        H  0.55964917  0.05342404  0.46670164     0.11500
H666        H  0.64833598  0.09196575  0.54610073     0.11600
H667        H  0.59669580  0.10943175  0.60449911     0.13500
H668        H  0.63002988  0.11314581  0.65955928     0.10100
H669        H  0.67186387  0.14923065  0.69112273     0.12200
H670        H  0.72669782  0.16662651  0.59810815     0.08800
H671        H  0.68508387  0.13200939  0.56710674     0.11500
C672        C  0.26977239  0.24583945  0.71513772    -0.03100
C673        C  0.29479628  0.26285048  0.69590540    -0.05700
C674        C  0.31090459  0.24730576  0.66737324    -0.20800
C675        C  0.30241209  0.21429431  0.65659293     0.25000
C676        C  0.27728811  0.19699715  0.67502325    -0.18300
C677        C  0.26096081  0.21261427  0.70367537    -0.08300
C678        C  0.31906519  0.19972361  0.62503423    -0.18600
C679        C  0.32391963  0.16650659  0.61793692    -0.23400
C680        C  0.34447484  0.15371721  0.58785441     0.27000
C681        C  0.36724754  0.12597205  0.59046567    -0.20100
C682        C  0.39006987  0.11592108  0.56382869    -0.09800
C683        C  0.38974628  0.13291487  0.53381663    -0.10300
C684        C  0.36532552  0.15923780  0.53036562    -0.03300
C685        C  0.34298431  0.16969941  0.55719334    -0.18400
H686        H  0.30143124  0.28876066  0.70273274     0.10700
H687        H  0.32983643  0.26139129  0.65337213     0.10800
H688        H  0.26907227  0.17194362  0.66662331     0.10400
H689        H  0.24024023  0.19888437  0.71548440     0.11500
H690        H  0.33024356  0.21734957  0.60806075     0.11600
H691        H  0.31618438  0.14863548  0.63620941     0.13500
H692        H  0.36849713  0.11302924  0.61369463     0.10100
H693        H  0.40834059  0.09521053  0.56679073     0.12200
H694        H  0.36462697  0.17259833  0.50739290     0.08800
H695        H  0.32498516  0.19059057  0.55411008     0.11500
C696        C  0.55319771  0.16061508  0.37418068    -0.03100
C697        C  0.57977833  0.18067551  0.38930968    -0.05700
C698        C  0.60229279  0.19950588  0.36976091    -0.20800
C699        C  0.59893297  0.19909913  0.33451606     0.25000
C700        C  0.57183008  0.17956736  0.31930735    -0.18300
C701        C  0.54924483  0.16066186  0.33893497    -0.08300
C702        C  0.62534417  0.21823866  0.31508686    -0.18600
C703        C  0.62286419  0.22462024  0.28210343    -0.23400
C704        C  0.65061509  0.24269385  0.26328174     0.27000
C705        C  0.65190487  0.23848368  0.22797752    -0.20100
C706        C  0.67793842  0.25422421  0.20939647    -0.09800
C707        C  0.70416204  0.27441554  0.22544634    -0.10300
C708        C  0.70120487  0.28024495  0.26086331    -0.03300
C709        C  0.67513433  0.26447100  0.27942223    -0.18400
H710        H  0.58322395  0.18194479  0.41635579     0.10700
H711        H  0.62269053  0.21435688  0.38232837     0.10800
H712        H  0.56836298  0.17793528  0.29227875     0.10400
H713        H  0.52929171  0.14532688  0.32635071     0.11500
H714        H  0.64839560  0.22699854  0.32896225     0.11600
H715        H  0.60032788  0.21546990  0.26771655     0.13500
H716        H  0.63287574  0.22258275  0.21463585     0.10100
H717        H  0.67806381  0.25012676  0.18221337     0.12200
H718        H  0.71834472  0.29758420  0.27465493     0.08800
H719        H  0.67394094  0.27013372  0.30636203     0.11500
C720        C  0.21201373  0.76645155  0.67907776    -0.03100
C721        C  0.20805970  0.80156302  0.67638094    -0.05700
C722        C  0.18696783  0.82099731  0.69922375    -0.20800
C723        C  0.16805237  0.80613793  0.72486685     0.25000
C724        C  0.16989217  0.77091913  0.72647259    -0.18300
C725        C  0.19102534  0.75142922  0.70357900    -0.08300
C726        C  0.14815555  0.82863777  0.74990897    -0.18600
C727        C  0.12353954  0.81818870  0.77162045    -0.23400
C728        C  0.10503938  0.84127274  0.79710258     0.27000
C729        C  0.07209694  0.83184095  0.80986714    -0.20100
C730        C  0.05445599  0.85221797  0.83468182    -0.09800
C731        C  0.06951343  0.88243129  0.84750764    -0.10300
C732        C  0.10243288  0.89197393  0.83476256    -0.03300
C733        C  0.12010906  0.87158295  0.80998618    -0.18400
H734        H  0.22075051  0.81448623  0.65649774     0.10700
H735        H  0.18544341  0.84795276  0.69678592     0.10800
H736        H  0.15588996  0.75819121  0.74575307     0.10400
H737        H  0.19194676  0.72442413  0.70567025     0.11500
H738        H  0.15371934  0.85534534  0.74978920     0.11600
H739        H  0.11551867  0.79205195  0.77016604     0.13500
H740        H  0.05997036  0.80856891  0.80063479     0.10100
H741        H  0.02914910  0.84414206  0.84403280     0.12200
H742        H  0.11486606  0.91495278  0.84435703     0.08800
H743        H  0.14592800  0.87930412  0.80172530     0.11500
C744        C  0.26253506  0.72204279  0.67420506    -0.03100
C745        C  0.28343666  0.69758067  0.65590003    -0.05700
C746        C  0.30617113  0.67600541  0.67227707    -0.20800
C747        C  0.31021073  0.67905491  0.70740225     0.25000
C748        C  0.29165013  0.70501555  0.72568068    -0.18300
C749        C  0.26856636  0.72642693  0.70931345    -0.08300
C750        C  0.33251680  0.65364428  0.72394063    -0.18600
C751        C  0.34681549  0.65841290  0.75490746    -0.23400
C752        C  0.36846771  0.63223362  0.77098347     0.27000
C753        C  0.39427720  0.64227396  0.79469327    -0.20100
C754        C  0.41536752  0.61834002  0.80992334    -0.09800
C755        C  0.41056549  0.58374110  0.80234103    -0.10300
C756        C  0.38400539  0.57365807  0.77939323    -0.03300
C757        C  0.36325058  0.59755849  0.76385615    -0.18400
H758        H  0.28099438  0.69427066  0.62874943     0.10700
H759        H  0.32046242  0.65659330  0.65738698     0.10800
H760        H  0.29407659  0.70844988  0.75276313     0.10400
H761        H  0.25568025  0.74636507  0.72455326     0.11500
H762        H  0.33818237  0.63026788  0.70934025     0.11600
H763        H  0.34413880  0.68279441  0.76844333     0.13500
H764        H  0.39853800  0.66877365  0.80103621     0.10100
H765        H  0.43537350  0.62683578  0.82773009     0.12200
H766        H  0.37979091  0.54722058  0.77284096     0.08800
H767        H  0.34294447  0.58874232  0.74655044     0.11500
C768        C  0.25983465  0.76503697  0.63219823    -0.03100
C769        C  0.26126304  0.76029668  0.59667354    -0.05700
C770        C  0.28222268  0.78072678  0.57731912    -0.20800
C771        C  0.30353049  0.80591397  0.59251248     0.25000
C772        C  0.30425573  0.80933082  0.62798749    -0.18300
C773        C  0.28324107  0.78883517  0.64739385    -0.08300
C774        C  0.32500928  0.82688418  0.57003685    -0.18600
C775        C  0.34771993  0.85126756  0.58051351    -0.23400
C776        C  0.37136884  0.86811545  0.55661438     0.27000
C777        C  0.40525502  0.87783776  0.56714490    -0.20100
C778        C  0.43022040  0.88811618  0.54375842    -0.09800
C779        C  0.42218376  0.88779278  0.50917433    -0.10300
C780        C  0.38640016  0.88447650  0.50014212    -0.03300
C781        C  0.36140593  0.87377599  0.52333604    -0.18400
H782        H  0.24679699  0.74050480  0.58332751     0.10700
H783        H  0.28193447  0.77656074  0.55011792     0.10800
H784        H  0.32079362  0.82766908  0.64114238     0.10400
H785        H  0.28443717  0.79222602  0.67461453     0.11500
H786        H  0.32300186  0.82075452  0.54311252     0.11600
H787        H  0.35187988  0.85690045  0.60718414     0.13500
H788        H  0.41304635  0.87581114  0.59314397     0.10100
H789        H  0.45608059  0.89529527  0.55276413     0.12200
H790        H  0.37805486  0.88828748  0.47464304     0.08800
H791        H  0.33462842  0.86915070  0.51496255     0.11500
C792        C  0.22944693  0.29337291  0.72471278    -0.03100
C793        C  0.23936724  0.32765424  0.72627745    -0.05700
C794        C  0.22353887  0.35054670  0.70555556    -0.20800
C795        C  0.19797385  0.34003830  0.68200819     0.25000
C796        C  0.18772952  0.30610576  0.68024976    -0.18300
C797        C  0.20372111  0.28313457  0.70073980    -0.08300
C798        C  0.18358097  0.36510292  0.65923663    -0.18600
C799        C  0.16895722  0.35651431  0.62919412    -0.23400
C800        C  0.15721272  0.38111564  0.60476947     0.27000
C801        C  0.13399893  0.36996767  0.57923698    -0.20100
C802        C  0.12443024  0.39099763  0.55388560    -0.09800
C803        C  0.13801605  0.42371877  0.55331197    -0.10300
C804        C  0.16048183  0.43537385  0.57933662    -0.03300
C805        C  0.17022287  0.41421990  0.60476174    -0.18400
H806        H  0.26060410  0.33700173  0.74212094     0.10700
H807        H  0.23228128  0.37644242  0.70711671     0.10800
H808        H  0.16751071  0.29690765  0.66306830     0.10400
H809        H  0.19616698  0.25693540  0.69772009     0.11500
H810        H  0.18670143  0.39147549  0.66702430     0.11600
H811        H  0.16594788  0.33014590  0.62134688     0.13500
H812        H  0.12356086  0.34466808  0.57863276     0.10100
H813        H  0.10650249  0.38152780  0.53452984     0.12200
H814        H  0.17158814  0.46034617  0.57926641     0.08800
H815        H  0.18891428  0.42356084  0.62341449     0.11500
C816        C  0.22854434  0.67847743  0.19078807    -0.03100
C817        C  0.20215896  0.69071265  0.21385230    -0.05700
C818        C  0.18780377  0.67033633  0.23771935    -0.20800
C819        C  0.19991862  0.63724715  0.24016824     0.25000
C820        C  0.22499677  0.62407885  0.21651588    -0.18300
C821        C  0.23919896  0.64440711  0.19222047    -0.08300
C822        C  0.18675413  0.61824301  0.26876666    -0.18600
C823        C  0.20519819  0.59346593  0.28260646    -0.23400
C824        C  0.19344847  0.57780783  0.31381675     0.27000
C825        C  0.20353338  0.54448664  0.31894757    -0.20100
C826        C  0.19241058  0.52887096  0.34779831    -0.09800
C827        C  0.17135453  0.54645652  0.37239686    -0.10300
C828        C  0.16256063  0.58030308  0.36794449    -0.03300
C829        C  0.17348734  0.59583630  0.33901310    -0.18400
H830        H  0.19384280  0.71686513  0.21442729     0.10700
H831        H  0.16845020  0.68112133  0.25555082     0.10800
H832        H  0.23440080  0.59837772  0.21714332     0.10400
H833        H  0.26021186  0.63373003  0.17632839     0.11500
H834        H  0.16190608  0.62673243  0.28031306     0.11600
H835        H  0.22985323  0.58440378  0.27115169     0.13500
H836        H  0.21944077  0.53026414  0.30022137     0.10100
H837        H  0.19993865  0.50289793  0.35072436     0.12200
H838        H  0.14619735  0.59449883  0.38626754     0.08800
H839        H  0.16635639  0.62197831  0.33658950     0.11500
C840        C  0.09821224  0.55165686  0.50219092    -0.03100
C841        C  0.09022434  0.54976189  0.53668420    -0.05700
C842        C  0.09774979  0.57665625  0.55978164    -0.20800
C843        C  0.11142893  0.60689211  0.54880047     0.25000
C844        C  0.11277404  0.61096984  0.51382181    -0.18300
C845        C  0.10514711  0.58387658  0.49090261    -0.08300
C846        C  0.12637347  0.63170347  0.57456823    -0.18600
C847        C  0.14034833  0.66177218  0.56792377    -0.23400
C848        C  0.16142533  0.68242237  0.59300570     0.27000
C849        C  0.16333181  0.71738897  0.59051854    -0.20100
C850        C  0.18593892  0.73683881  0.61139522    -0.09800
C851        C  0.20916568  0.72169089  0.63394728    -0.10300
C852        C  0.20504887  0.68683184  0.63796433    -0.03300
C853        C  0.18194717  0.66751098  0.61758652    -0.18400
H854        H  0.07970580  0.52695948  0.54614830     0.10700
H855        H  0.09430033  0.57323117  0.58645663     0.10800
H856        H  0.12074384  0.63441838  0.50378162     0.10400
H857        H  0.10494885  0.58832892  0.46440891     0.11500
H858        H  0.12770801  0.62375920  0.60022994     0.11600
H859        H  0.13731931  0.67157130  0.54321063     0.13500
H860        H  0.14753007  0.72968034  0.57210528     0.10100
H861        H  0.18661514  0.76377994  0.60877938     0.12200
H862        H  0.21953201  0.67400295  0.65682862     0.08800
H863        H  0.18126300  0.64065238  0.62042168     0.11500
C864        C  0.21172044  0.21294304  0.21602637    -0.03100
C865        C  0.18442382  0.19365364  0.22949258    -0.05700
C866        C  0.16269653  0.17344727  0.20857343    -0.20800
C867        C  0.16834643  0.17068287  0.17361859     0.25000
C868        C  0.19701749  0.18780840  0.16010910    -0.18300
C869        C  0.21869003  0.20818443  0.18101039    -0.08300
C870        C  0.14297599  0.15110425  0.15186378    -0.18600
C871        C  0.15222625  0.13531291  0.12215830    -0.23400
C872        C  0.12702796  0.11581309  0.10024657     0.27000
C873        C  0.13983390  0.08786303  0.08061435    -0.20100
C874        C  0.11756430  0.06961552  0.05857702    -0.09800
C875        C  0.08206486  0.07940394  0.05487027    -0.10300
C876        C  0.06909307  0.10754281  0.07435243    -0.03300
C877        C  0.09131623  0.12546221  0.09708513    -0.18400
H878        H  0.17906430  0.19533450  0.25636391     0.10700
H879        H  0.14114596  0.16009467  0.21976355     0.10800
H880        H  0.20230490  0.18623124  0.13324667     0.10400
H881        H  0.24079447  0.22003354  0.16926720     0.11500
H882        H  0.11617614  0.14853038  0.16129695     0.11600
H883        H  0.17978791  0.13500186  0.11430553     0.13500
H884        H  0.16723075  0.08005473  0.08237803     0.10100
H885        H  0.12845904  0.04815345  0.04386623     0.12200
H886        H  0.04188564  0.11568320  0.07197279     0.08800
H887        H  0.08083310  0.14734616  0.11139618     0.11500
C888        C  0.26054743  0.25803897  0.22117216    -0.03100
C889        C  0.29677509  0.25983563  0.22964634    -0.05700
C890        C  0.31970034  0.28096069  0.21323546    -0.20800
C891        C  0.30742419  0.30155550  0.18825346     0.25000
C892        C  0.27119269  0.30093383  0.18044965    -0.18300
C893        C  0.24823153  0.27987767  0.19691817    -0.08300
C894        C  0.33323653  0.32384769  0.17207375    -0.19000
C895        C  0.32616402  0.34159382  0.14495408    -0.23400
C896        C  0.35225393  0.36354563  0.12895700     0.27000
C897        C  0.33958942  0.38892884  0.10898665    -0.20100
C898        C  0.36295336  0.40950580  0.09246223    -0.09800
C899        C  0.39971266  0.40513254  0.09538465    -0.10300
C900        C  0.41245998  0.37961861  0.11531914    -0.03300
C901        C  0.38904167  0.35896896  0.13183691    -0.18400
H902        H  0.30775227  0.24601957  0.24977781     0.10700
H903        H  0.34728062  0.28149386  0.22049461     0.10800
H904        H  0.25991995  0.31701640  0.16228902     0.10400
H905        H  0.22040129  0.28062357  0.19072869     0.11500
H906        H  0.35925118  0.32561647  0.18329122     0.11600
H907        H  0.30013216  0.34071829  0.13385727     0.13500
H908        H  0.31141268  0.39281726  0.10605449     0.10100
H909        H  0.35216074  0.42847266  0.07690546     0.12200
H910        H  0.44054906  0.37564459  0.11837463     0.08800
H911        H  0.39998710  0.33911177  0.14616298     0.11500
C912        C  0.41954738  0.10527329  0.39686287    -0.03100
C913        C  0.40345694  0.08055492  0.37545171    -0.05700
C914        C  0.37719351  0.08951235  0.35259767    -0.20800
C915        C  0.36642761  0.12326622  0.35073499     0.25000
C916        C  0.38351531  0.14803449  0.37107032    -0.18300
C917        C  0.40969185  0.13918950  0.39349905    -0.08300
C918        C  0.33897159  0.13286523  0.32621829    -0.18600
C919        C  0.31675314  0.15914839  0.33308407    -0.23400
C920        C  0.29215712  0.17370726  0.30854328     0.27000
C921        C  0.26488867  0.19505155  0.32114616    -0.20100
C922        C  0.24457551  0.21378622  0.29959991    -0.09800
C923        C  0.25199250  0.21303660  0.26463001    -0.10300
C924        C  0.27700137  0.18882596  0.25178500    -0.03300
C925        C  0.29722463  0.16981856  0.27342115    -0.18400
H926        H  0.41158425  0.05460169  0.37530116     0.10700
H927        H  0.36521850  0.07003834  0.33637236     0.10800
H928        H  0.37721379  0.17446526  0.36923081     0.10400
H929        H  0.42239362  0.15914126  0.40854266     0.11500
H930        H  0.33712197  0.11809652  0.30247196     0.11600
H931        H  0.31699765  0.17139978  0.35826158     0.13500
H932        H  0.25971524  0.19785730  0.34804982     0.10100
H933        H  0.22348471  0.22910371  0.31091121     0.12200
H934        H  0.28241008  0.18619163  0.22493626     0.08800
H935        H  0.31789926  0.15353683  0.26262087     0.11500
C936        C  0.11362611  0.42949320  0.41513088    -0.03100
C937        C  0.14744849  0.41500952  0.41879572    -0.05700
C938        C  0.15897729  0.38760941  0.39834738    -0.20800
C939        C  0.13827607  0.37470450  0.37174835     0.25000
C940        C  0.10493022  0.38967856  0.36650606    -0.18300
C941        C  0.09265560  0.41687932  0.38812430    -0.08300
C942        C  0.15395524  0.34627231  0.35043191    -0.18600
C943        C  0.14641473  0.33842244  0.31784699    -0.23400
C944        C  0.16838630  0.31337441  0.29728892     0.27000
C945        C  0.15315648  0.29346832  0.27107397    -0.20100
C946        C  0.17337716  0.26912316  0.25234379    -0.09800
C947        C  0.20955680  0.26375800  0.25954893    -0.10300
C948        C  0.22511983  0.28614082  0.28394414    -0.03300
C949        C  0.20490362  0.31009772  0.30277097    -0.18400
H950        H  0.16567415  0.42532641  0.43749195     0.10700
H951        H  0.18501683  0.37720474  0.40267188     0.10800
H952        H  0.08839442  0.38053068  0.34589740     0.10400
H953        H  0.06765692  0.42861111  0.38281556     0.11500
H954        H  0.17525831  0.33246520  0.36182416     0.11600
H955        H  0.12456109  0.35078507  0.30584083     0.13500
H956        H  0.12541258  0.29648751  0.26531367     0.10100
H957        H  0.16036234  0.25506630  0.23199917     0.12200
H958        H  0.25313475  0.28440670  0.28906374     0.08800
H959        H  0.21815621  0.32635389  0.32138005     0.11500
loop_ 
_geom_bond_atom_site_label_1 
_geom_bond_atom_site_label_2 
_geom_bond_distance 
_geom_bond_site_symmetry_2 
_ccdc_geom_bond_type 
C1          C864   1.555       .  S
C1          C888   1.556       .  S
C1          C923   1.558       .  S
C1          C947   1.559       .  S
C2            C4   1.526       .  S
C2            C6   1.532       .  S
C2            C5   1.545       .  S
C2          C936   1.534       .  S
C3            C7   1.554       .  S
C3            C9   1.551       .  S
C3            C8   1.548       .  S
C3          C840   1.543       .  S
C4           C12   1.372       .  A
C4            C7   1.391       .  A
C5           C16   1.384       .  A
C5            C8   1.408       .  A
C6           C20   1.371       .  A
C6            C9   1.390       .  A
C7           C10   1.389       .  A
C8           C14   1.377       .  A
C9           C17   1.390       .  A
C10          N11   1.361       .  A
C10          H23   1.078       .  S
N11          C12   1.353       .  A
N11         C827   1.442       .  S
C12          H13   1.082       .  S
C14          N15   1.361       .  A
C14          H24   1.082       .  S
N15          C16   1.362       .  A
N15          N64   1.415   1_455  S
C16          H22   1.081       .  S
C17          N18   1.360       .  A
C17          H19   1.080       .  S
N18          C20   1.353       .  A
N18         C803   1.439       .  S
C20          H21   1.082       .  S
C25         C720   1.556       .  S
C25         C744   1.559       .  S
C25         C768   1.560       .  S
C25         C851   1.560       .  S
C26          C28   1.540       .  S
C26          C30   1.537       .  S
C26          C29   1.563       .  S
C26         C912   1.533       .  S
C27          C31   1.542       .  S
C27          C33   1.534       .  S
C27          C32   1.536       .  S
C27         C648   1.529       .  S
C28          C36   1.379       .  A
C28          C31   1.400       .  A
C29          C40   1.395       .  A
C29          C32   1.407       .  A
C30          C44   1.382       .  A
C30          C33   1.383       .  A
C31          C34   1.385       .  A
C32          C38   1.374       .  A
C33          C41   1.380       .  A
C34          N35   1.354       .  A
C34          H47   1.081       .  S
N35          C36   1.352       .  A
N35         C683   1.436       .  S
C36          H37   1.082       .  S
C38          N39   1.351       .  A
C38          H48   1.082       .  S
N39          C40   1.361       .  A
N39          N89   1.408   1_545  S
C40          H46   1.078       .  S
C41          N42   1.363       .  A
C41          H43   1.082       .  S
N42          C44   1.362       .  A
N42         C696   1.450       .  S
C44          H45   1.082       .  S
C49         C576   1.556       .  S
C49         C611   1.562       .  S
C49         C635   1.563       .  S
C49         C707   1.562       .  S
C50         C528   1.550       .  S
C50         C563   1.550       .  S
C50         C672   1.555       .  S
C50         C792   1.553       .  S
C51          C53   1.542       .  S
C51          C55   1.548       .  S
C51          C54   1.534       .  S
C51         C456   1.541       .  S
C52          C56   1.553       .  S
C52          C58   1.554       .  S
C52          C57   1.542       .  S
C52         C624   1.546       .  S
C53          C61   1.381       .  A
C53          C56   1.394       .  A
C54          C65   1.376       .  A
C54          C57   1.397       .  A
C55          C69   1.382       .  A
C55          C58   1.401       .  A
C56          C59   1.386       .  A
C57          C63   1.383       .  A
C58          C66   1.388       .  A
C59          N60   1.359       .  A
C59          H72   1.080       .  S
N60          C61   1.355       .  A
N60         C504   1.444       .  S
C61          H62   1.080       .  S
C63          N64   1.363       .  A
C63          H73   1.082       .  S
N64          C65   1.360       .  A
C65          H71   1.082       .  S
C66          N67   1.357       .  A
C66          H68   1.077       .  S
N67          C69   1.354       .  A
N67         C491   1.444       .  S
C69          H70   1.078       .  S
C74         C384   1.555       .  S
C74         C419   1.554       .  S
C74         C432   1.555       .  S
C74         C515   1.557       .  S
C75         C347   1.555       .  S
C75         C360   1.558       .  S
C75         C480   1.554       .  S
C75         C659   1.556       .  S
C76          C78   1.551       .  S
C76          C80   1.554       .  S
C76          C79   1.552       .  S
C76         C779   1.537       .  S
C77          C81   1.533       .  S
C77          C83   1.528       .  S
C77          C82   1.542       .  S
C77         C443   1.528       .  S
C78          C86   1.390       .  A
C78          C81   1.390       .  A
C79          C90   1.386       .  A
C79          C82   1.406       .  A
C80          C94   1.392       .  A
C80          C83   1.388       .  A
C81          C84   1.372       .  A
C82          C88   1.381       .  A
C83          C91   1.373       .  A
C84          N85   1.353       .  A
C84          H97   1.082       .  S
N85          C86   1.360       .  A
N85         C312   1.439       .  S
C86          H87   1.081       .  S
C88          N89   1.353       .  A
C88          H98   1.077       .  S
N89          C90   1.360       .  A
C90          H96   1.082       .  S
C91          N92   1.356       .  A
C91          H93   1.081       .  S
N92          C94   1.362       .  A
N92         C299   1.446       .  S
C94          H95   1.080       .  S
C99         C251   1.550       .  S
C99         C264   1.554       .  S
C99         C323   1.553       .  S
C99         C816   1.553       .  S
C100        C192   1.557       .  S
C100        C216   1.563       .  S
C100        C288   1.558       .  S
C100        C467   1.560       .  S
C101        C103   1.535       .  S
C101        C105   1.542       .  S
C101        C104   1.557       .  S
C101        C600   1.542       .  S
C102        C106   1.539       .  S
C102        C108   1.545       .  S
C102        C107   1.536       .  S
C102        C275   1.537       .  S
C103        C111   1.373       .  A
C103        C106   1.390       .  A
C104        C115   1.390   1_554  A
C104        C107   1.407       .  A
C105        C119   1.380       .  A
C105        C108   1.393       .  A
C106        C109   1.382       .  A
C107        C113   1.373   1_554  A
C108        C116   1.382       .  A
C109        N110   1.359       .  A
C109        H122   1.080       .  S
N110        C111   1.356       .  A
N110        C408   1.440       .  S
C111        H112   1.081       .  S
C113        N114   1.352       .  A
C113        H123   1.082       .  S
N114        C115   1.361       .  A
N114        N137   1.406       .  S
C115        H121   1.079       .  S
C116        N117   1.357       .  A
C116        H118   1.081       .  S
N117        C119   1.358       .  A
N117        C899   1.444       .  S
C119        H120   1.082       .  S
C124        C126   1.537       .  S
C124        C128   1.545       .  S
C124        C127   1.557       .  S
C124        C227   1.532       .  S
C125        C129   1.529       .  S
C125        C131   1.536       .  S
C125        C130   1.545       .  S
C125        C552   1.526       .  S
C126        C134   1.383       .  A
C126        C129   1.393       .  A
C127        C138   1.389       .  A
C127        C130   1.413       .  A
C128        C142   1.384       .  A
C128        C131   1.386       .  A
C129        C132   1.380       .  A
C130        C136   1.377       .  A
C131        C139   1.380       .  A
C132        N133   1.354       .  A
C132        H145   1.083       .  S
N133        C134   1.356       .  A
N133        C371   1.444       .  S
C134        H135   1.081       .  S
C136        N137   1.350       .  A
C136        H146   1.080       .  S
N137        C138   1.359       .  A
C138        H144   1.081       .  S
C139        N140   1.359       .  A
C139        H141   1.082       .  S
N140        C142   1.361       .  A
N140        C755   1.445       .  S
C142        H143   1.082       .  S
N147        N148   1.326   1_556  A
N147        N153   1.317       .  A
N147       Mn176   2.230   1_455  S
N148        C155   1.359       .  A
N149        N151   1.315       .  A
N149        N150   1.321       .  A
N149       Mn165   2.203   1_545  S
N150        C156   1.354       .  A
N151        N152   1.320       .  A
N151       Mn176   2.199   1_455  S
N152        C156   1.353       .  A
N153        N154   1.318   1_556  A
N153       Mn165   2.201   1_545  S
N154        C155   1.352       .  A
C155        C875   1.485       .  S
C156        C539   1.480       .  S
N157        N163   1.317       .  A
N157        N158   1.321       .  A
N157       Mn187   2.213   1_455  S
N158        C166   1.355       .  A
N159        N160   1.320   1_556  A
N159        N161   1.315       .  A
N159       Mn165   2.201       .  S
N160        C167   1.353       .  A
N161        N162   1.321   1_556  A
N161       Mn187   2.201   1_455  S
N162        C167   1.355       .  A
N163        N164   1.321       .  A
N163       Mn165   2.209       .  S
N164        C166   1.355       .  A
Mn165      Cl189   2.546   1_455  S
C166        C731   1.484       .  S
C167        C240   1.481       .  S
N168        N169   1.324       .  A
N168        N174   1.317       .  A
N168       Mn176   2.225       .  S
N169        C177   1.357       .  A
N170        N172   1.316       .  A
N170        N171   1.322   1_556  A
N170       Mn188   2.212   1_545  S
N171        C178   1.355       .  A
N172        N173   1.320   1_556  A
N172       Mn176   2.196       .  S
N173        C178   1.353       .  A
N174        N175   1.319       .  A
N174       Mn188   2.199   1_545  S
N175        C177   1.352       .  A
Mn176      Cl189   2.554   1_545  S
C177        C336   1.482       .  S
C178        C587   1.482       .  S
N179        N180   1.322   1_556  A
N179        N185   1.317       .  A
N179       Mn187   2.218       .  S
N180        C190   1.356       .  A
N181        N182   1.324       .  A
N181        N183   1.314       .  A
N181       Mn188   2.212       .  S
N182        C191   1.356       .  A
N183        N184   1.318       .  A
N183       Mn187   2.191       .  S
N184        C191   1.351       .  A
N185        N186   1.321   1_556  A
N185       Mn188   2.209       .  S
N186        C190   1.354       .  A
Mn187      Cl189   2.552       .  S
Mn188      Cl189   2.549       .  S
C190        C395   1.484       .  S
C191        C203   1.479       .  S
C192        C193   1.415       .  A
C192        C197   1.416       .  A
C193        C194   1.399       .  A
C193        H206   1.077       .  S
C194        C195   1.400       .  A
C194        H207   1.083       .  S
C195        C196   1.402       .  A
C195        C198   1.484       .  S
C196        C197   1.397       .  A
C196        H208   1.083       .  S
C197        H209   1.083       .  S
C198        C199   1.347       .  D
C198        H210   1.086       .  S
C199        C200   1.485       .  S
C199        H211   1.086       .  S
C200        C201   1.405       .  A
C200        C205   1.406       .  A
C201        C202   1.402       .  A
C201        H212   1.083       .  S
C202        C203   1.404       .  A
C202        H213   1.083       .  S
C203        C204   1.405       .  A
C204        C205   1.397       .  A
C204        H214   1.083       .  S
C205        H215   1.082       .  S
C216        C217   1.417       .  A
C216        C221   1.416       .  A
C217        C218   1.409       .  A
C217        H230   1.083       .  S
C218        C219   1.403       .  A
C218        H231   1.083       .  S
C219        C220   1.397       .  A
C219        C222   1.483       .  S
C220        C221   1.392       .  A
C220        H232   1.083       .  S
C221        H233   1.080       .  S
C222        C223   1.351       .  D
C222        H234   1.085       .  S
C223        C224   1.498       .  S
C223        H235   1.086       .  S
C224        C225   1.404       .  A
C224        C229   1.409       .  A
C225        C226   1.389       .  A
C225        H236   1.081       .  S
C226        C227   1.408       .  A
C226        H237   1.083       .  S
C227        C228   1.410       .  A
C228        C229   1.412       .  A
C228        H238   1.078       .  S
C229        H239   1.083       .  S
C240        C241   1.405       .  A
C240        C245   1.404       .  A
C241        C242   1.399       .  A
C241        H254   1.083       .  S
C242        C243   1.404       .  A
C242        H255   1.084       .  S
C243        C244   1.410       .  A
C243        C246   1.491       .  S
C244        C245   1.399       .  A
C244        H256   1.080       .  S
C245        H257   1.083       .  S
C246        C247   1.348       .  D
C246        H258   1.086       .  S
C247        C248   1.486       .  S
C247        H259   1.084       .  S
C248        C249   1.400       .  A
C248        C253   1.406       .  A
C249        C250   1.396       .  A
C249        H260   1.084       .  S
C250        C251   1.414       .  A
C250        H261   1.080       .  S
C251        C252   1.412       .  A
C252        C253   1.400       .  A
C252        H262   1.083       .  S
C253        H263   1.082       .  S
C264        C265   1.413       .  A
C264        C269   1.412       .  A
C265        C266   1.395       .  A
C265        H278   1.080       .  S
C266        C267   1.402       .  A
C266        H279   1.084       .  S
C267        C268   1.410       .  A
C267        C270   1.495       .  S
C268        C269   1.403       .  A
C268        H280   1.080       .  S
C269        H281   1.083       .  S
C270        C271   1.349       .  D
C270        H282   1.085       .  S
C271        C272   1.491       .  S
C271        H283   1.083       .  S
C272        C273   1.401       .  A
C272        C277   1.408       .  A
C273        C274   1.398       .  A
C273        H284   1.084       .  S
C274        C275   1.409       .  A
C274        H285   1.079       .  S
C275        C276   1.408       .  A
C276        C277   1.402       .  A
C276        H286   1.081       .  S
C277        H287   1.082       .  S
C288        C289   1.414       .  A
C288        C293   1.414       .  A
C289        C290   1.396       .  A
C289        H302   1.083       .  S
C290        C291   1.400       .  A
C290        H303   1.083       .  S
C291        C292   1.409       .  A
C291        C294   1.493       .  S
C292        C293   1.402       .  A
C292        H304   1.081       .  S
C293        H305   1.080       .  S
C294        C295   1.349       .  D
C294        H306   1.084       .  S
C295        C296   1.494       .  S
C295        H307   1.084       .  S
C296        C297   1.403       .  A
C296        C301   1.411       .  A
C297        C298   1.396       .  A
C297        H308   1.084       .  S
C298        C299   1.406       .  A
C298        H309   1.081       .  S
C299        C300   1.407       .  A
C300        C301   1.404       .  A
C300        H310   1.082       .  S
C301        H311   1.080       .  S
C312        C313   1.403       .  A
C312        C317   1.405       .  A
C313        C314   1.393       .  A
C313        H326   1.083       .  S
C314        C315   1.402       .  A
C314        H327   1.084       .  S
C315        C316   1.409       .  A
C315        C318   1.483       .  S
C316        C317   1.402       .  A
C316        H328   1.082       .  S
C317        H329   1.083       .  S
C318        C319   1.348       .  D
C318        H330   1.085       .  S
C319        C320   1.489       .  S
C319        H331   1.085       .  S
C320        C321   1.404       .  A
C320        C325   1.403       .  A
C321        C322   1.402       .  A
C321        H332   1.084       .  S
C322        C323   1.415       .  A
C322        H333   1.079       .  S
C323        C324   1.413       .  A
C324        C325   1.389       .  A
C324        H334   1.083       .  S
C325        H335   1.081       .  S
C336        C337   1.406       .  A
C336        C341   1.405       .  A
C337        C338   1.398       .  A
C337        H350   1.083       .  S
C338        C339   1.401       .  A
C338        H351   1.084       .  S
C339        C340   1.407       .  A
C339        C342   1.484       .  S
C340        C341   1.403       .  A
C340        H352   1.083       .  S
C341        H353   1.083       .  S
C342        C343   1.344       .  D
C342        H354   1.087       .  S
C343        C344   1.483       .  S
C343        H355   1.087       .  S
C344        C345   1.398       .  A
C344        C349   1.404       .  A
C345        C346   1.396       .  A
C345        H356   1.083       .  S
C346        C347   1.416       .  A
C346        H357   1.079       .  S
C347        C348   1.414       .  A
C348        C349   1.403       .  A
C348        H358   1.083       .  S
C349        H359   1.083       .  S
C360        C361   1.416       .  A
C360        C365   1.414       .  A
C361        C362   1.397       .  A
C361        H374   1.077       .  S
C362        C363   1.400       .  A
C362        H375   1.084       .  S
C363        C364   1.405       .  A
C363        C366   1.486       .  S
C364        C365   1.395       .  A
C364        H376   1.081       .  S
C365        H377   1.083       .  S
C366        C367   1.347       .  D
C366        H378   1.085       .  S
C367        C368   1.486       .  S
C367        H379   1.085       .  S
C368        C369   1.403       .  A
C368        C373   1.407       .  A
C369        C370   1.397       .  A
C369        H380   1.083       .  S
C370        C371   1.406       .  A
C370        H381   1.081       .  S
C371        C372   1.406       .  A
C372        C373   1.397       .  A
C372        H382   1.082       .  S
C373        H383   1.080       .  S
C384        C385   1.412       .  A
C384        C389   1.416       .  A
C385        C386   1.399       .  A
C385        H398   1.083       .  S
C386        C387   1.403       .  A
C386        H399   1.083       .  S
C387        C388   1.406       .  A
C387        C390   1.493       .  S
C388        C389   1.399       .  A
C388        H400   1.080       .  S
C389        H401   1.079       .  S
C390        C391   1.351       .  D
C390        H402   1.085       .  S
C391        C392   1.491       .  S
C391        H403   1.083       .  S
C392        C393   1.405       .  A
C392        C397   1.408       .  A
C393        C394   1.400       .  A
C393        H404   1.084       .  S
C394        C395   1.405       .  A
C394        H405   1.083       .  S
C395        C396   1.405       .  A
C396        C397   1.400       .  A
C396        H406   1.083       .  S
C397        H407   1.081       .  S
C408        C409   1.405       .  A
C408        C413   1.407       .  A
C409        C410   1.395       .  A
C409        H422   1.082       .  S
C410        C411   1.402       .  A
C410        H423   1.084       .  S
C411        C412   1.406       .  A
C411        C414   1.480       .  S
C412        C413   1.398       .  A
C412        H424   1.082       .  S
C413        H425   1.082       .  S
C414        C415   1.348       .  D
C414        H426   1.084       .  S
C415        C416   1.485       .  S
C415        H427   1.085       .  S
C416        C417   1.402       .  A
C416        C421   1.404       .  A
C417        C418   1.399       .  A
C417        H428   1.083       .  S
C418        C419   1.414       .  A
C418        H429   1.083       .  S
C419        C420   1.414       .  A
C420        C421   1.393       .  A
C420        H430   1.080       .  S
C421        H431   1.081       .  S
C432        C433   1.414       .  A
C432        C437   1.415       .  A
C433        C434   1.390       .  A
C433        H446   1.077       .  S
C434        C435   1.398       .  A
C434        H447   1.084       .  S
C435        C436   1.405       .  A
C435        C438   1.482       .  S
C436        C437   1.401       .  A
C436        H448   1.081       .  S
C437        H449   1.083       .  S
C438        C439   1.346       .  D
C438        H450   1.088       .  S
C439        C440   1.482       .  S
C439        H451   1.084       .  S
C440        C441   1.402       .  A
C440        C445   1.401       .  A
C441        C442   1.405       .  A
C441        H452   1.083       .  S
C442        C443   1.409       .  A
C442        H453   1.073       .  S
C443        C444   1.409       .  A
C444        C445   1.386       .  A
C444        H454   1.083       .  S
C445        H455   1.083       .  S
C456        C457   1.406       .  A
C456        C461   1.410       .  A
C457        C458   1.399       .  A
C457        H470   1.077       .  S
C458        C459   1.402       .  A
C458        H471   1.083       .  S
C459        C460   1.407       .  A
C459        C462   1.488       .  S
C460        C461   1.403       .  A
C460        H472   1.082       .  S
C461        H473   1.081       .  S
C462        C463   1.344       .  D
C462        H474   1.088       .  S
C463        C464   1.483       .  S
C463        H475   1.085       .  S
C464        C465   1.398       .  A
C464        C469   1.402       .  A
C465        C466   1.401       .  A
C465        H476   1.083       .  S
C466        C467   1.419       .  A
C466        H477   1.077       .  S
C467        C468   1.414       .  A
C468        C469   1.400       .  A
C468        H478   1.082       .  S
C469        H479   1.083       .  S
C480        C481   1.414       .  A
C480        C485   1.414       .  A
C481        C482   1.389       .  A
C481        H494   1.083       .  S
C482        C483   1.397       .  A
C482        H495   1.084       .  S
C483        C484   1.409       .  A
C483        C486   1.487       .  S
C484        C485   1.406       .  A
C484        H496   1.081       .  S
C485        H497   1.079       .  S
C486        C487   1.346       .  D
C486        H498   1.085       .  S
C487        C488   1.490       .  S
C487        H499   1.085       .  S
C488        C489   1.402       .  A
C488        C493   1.410       .  A
C489        C490   1.397       .  A
C489        H500   1.084       .  S
C490        C491   1.408       .  A
C490        H501   1.082       .  S
C491        C492   1.405       .  A
C492        C493   1.400       .  A
C492        H502   1.081       .  S
C493        H503   1.081       .  S
C504        C505   1.407       .  A
C504        C509   1.406       .  A
C505        C506   1.401       .  A
C505        H518   1.082       .  S
C506        C507   1.404       .  A
C506        H519   1.084       .  S
C507        C508   1.407       .  A
C507        C510   1.488       .  S
C508        C509   1.399       .  A
C508        H520   1.082       .  S
C509        H521   1.082       .  S
C510        C511   1.350       .  D
C510        H522   1.085       .  S
C511        C512   1.490       .  S
C511        H523   1.086       .  S
C512        C513   1.405       .  A
C512        C517   1.403       .  A
C513        C514   1.403       .  A
C513        H524   1.083       .  S
C514        C515   1.412       .  A
C514        H525   1.078       .  S
C515        C516   1.416       .  A
C516        C517   1.395       .  A
C516        H526   1.082       .  S
C517        H527   1.081       .  S
C528        C529   1.414       .  A
C528        C533   1.412       .  A
C529        C530   1.396       .  A
C529        H542   1.079       .  S
C530        C531   1.400       .  A
C530        H543   1.085       .  S
C531        C532   1.406       .  A
C531        C534   1.486       .  S
C532        C533   1.399       .  A
C532        H544   1.082       .  S
C533        H545   1.083       .  S
C534        C535   1.348       .  D
C534        H546   1.085       .  S
C535        C536   1.488       .  S
C535        H547   1.086       .  S
C536        C537   1.404       .  A
C536        C541   1.408       .  A
C537        C538   1.400       .  A
C537        H548   1.084       .  S
C538        C539   1.405       .  A
C538        H549   1.082       .  S
C539        C540   1.404       .  A
C540        C541   1.398       .  A
C540        H550   1.083       .  S
C541        H551   1.081       .  S
C552        C553   1.409       .  A
C552        C557   1.410       .  A
C553        C554   1.391       .  A
C553        H566   1.082       .  S
C554        C555   1.397       .  A
C554        H567   1.084       .  S
C555        C556   1.403       .  A
C555        C558   1.477       .  S
C556        C557   1.402       .  A
C556        H568   1.083       .  S
C557        H569   1.075       .  S
C558        C559   1.343       .  D
C558        H570   1.088       .  S
C559        C560   1.477       .  S
C559        H571   1.086       .  S
C560        C561   1.399       .  A
C560        C565   1.401       .  A
C561        C562   1.399       .  A
C561        H572   1.083       .  S
C562        C563   1.415       .  A
C562        H573   1.083       .  S
C563        C564   1.412       .  A
C564        C565   1.395       .  A
C564        H574   1.080       .  S
C565        H575   1.083       .  S
C576        C577   1.412       .  A
C576        C581   1.414       .  A
C577        C578   1.399       .  A
C577        H590   1.083       .  S
C578        C579   1.403       .  A
C578        H591   1.083       .  S
C579        C580   1.407       .  A
C579        C582   1.496       .  S
C580        C581   1.400       .  A
C580        H592   1.080       .  S
C581        H593   1.079       .  S
C582        C583   1.351       .  D
C582        H594   1.083       .  S
C583        C584   1.494       .  S
C583        H595   1.083       .  S
C584        C585   1.406       .  A
C584        C589   1.410       .  A
C585        C586   1.399       .  A
C585        H596   1.084       .  S
C586        C587   1.403       .  A
C586        H597   1.082       .  S
C587        C588   1.405       .  A
C588        C589   1.401       .  A
C588        H598   1.084       .  S
C589        H599   1.080       .  S
C600        C601   1.409       .  A
C600        C605   1.413       .  A
C601        C602   1.413       .  A
C601        H614   1.075       .  S
C602        C603   1.410       .  A
C602        H615   1.083       .  S
C603        C604   1.402       .  A
C603        C606   1.502       .  S
C604        C605   1.393       .  A
C604        H616   1.082       .  S
C605        H617   1.083       .  S
C606        C607   1.357       .  D
C606        H618   1.084       .  S
C607        C608   1.501       .  S
C607        H619   1.085       .  S
C608        C609   1.406       .  A
C608        C613   1.406       .  A
C609        C610   1.400       .  A
C609        H620   1.083       .  S
C610        C611   1.411       .  A
C610        H621   1.083       .  S
C611        C612   1.420       .  A
C612        C613   1.406       .  A
C612        H622   1.079       .  S
C613        H623   1.081       .  S
C624        C625   1.409       .  A
C624        C629   1.408       .  A
C625        C626   1.404       .  A
C625        H638   1.081       .  S
C626        C627   1.406       .  A
C626        H639   1.083       .  S
C627        C628   1.410       .  A
C627        C630   1.505       .  S
C628        C629   1.404       .  A
C628        H640   1.080       .  S
C629        H641   1.077       .  S
C630        C631   1.354       .  D
C630        H642   1.085       .  S
C631        C632   1.501       .  S
C631        H643   1.083       .  S
C632        C633   1.402       .  A
C632        C637   1.410       .  A
C633        C634   1.399       .  A
C633        H644   1.083       .  S
C634        C635   1.414       .  A
C634        H645   1.083       .  S
C635        C636   1.415       .  A
C636        C637   1.409       .  A
C636        H646   1.079       .  S
C637        H647   1.081       .  S
C648        C649   1.408       .  A
C648        C653   1.409       .  A
C649        C650   1.395       .  A
C649        H662   1.079       .  S
C650        C651   1.404       .  A
C650        H663   1.082       .  S
C651        C652   1.403       .  A
C651        C654   1.486       .  S
C652        C653   1.403       .  A
C652        H664   1.082       .  S
C653        H665   1.083       .  S
C654        C655   1.349       .  D
C654        H666   1.085       .  S
C655        C656   1.488       .  S
C655        H667   1.087       .  S
C656        C657   1.404       .  A
C656        C661   1.404       .  A
C657        C658   1.402       .  A
C657        H668   1.083       .  S
C658        C659   1.411       .  A
C658        H669   1.083       .  S
C659        C660   1.414       .  A
C660        C661   1.396       .  A
C660        H670   1.081       .  S
C661        H671   1.081       .  S
C672        C673   1.414       .  A
C672        C677   1.416       .  A
C673        C674   1.393       .  A
C673        H686   1.083       .  S
C674        C675   1.398       .  A
C674        H687   1.084       .  S
C675        C676   1.405       .  A
C675        C678   1.484       .  S
C676        C677   1.401       .  A
C676        H688   1.082       .  S
C677        H689   1.080       .  S
C678        C679   1.346       .  D
C678        H690   1.087       .  S
C679        C680   1.483       .  S
C679        H691   1.085       .  S
C680        C681   1.403       .  A
C680        C685   1.407       .  A
C681        C682   1.399       .  A
C681        H692   1.083       .  S
C682        C683   1.404       .  A
C682        H693   1.083       .  S
C683        C684   1.403       .  A
C684        C685   1.397       .  A
C684        H694   1.082       .  S
C685        H695   1.082       .  S
C696        C697   1.406       .  A
C696        C701   1.409       .  A
C697        C698   1.400       .  A
C697        H710   1.081       .  S
C698        C699   1.405       .  A
C698        H711   1.083       .  S
C699        C700   1.410       .  A
C699        C702   1.498       .  S
C700        C701   1.405       .  A
C700        H712   1.081       .  S
C701        H713   1.082       .  S
C702        C703   1.352       .  D
C702        H714   1.084       .  S
C703        C704   1.498       .  S
C703        H715   1.084       .  S
C704        C705   1.403       .  A
C704        C709   1.407       .  A
C705        C706   1.401       .  A
C705        H716   1.084       .  S
C706        C707   1.414       .  A
C706        H717   1.082       .  S
C707        C708   1.416       .  A
C708        C709   1.402       .  A
C708        H718   1.080       .  S
C709        H719   1.081       .  S
C720        C721   1.413       .  A
C720        C725   1.414       .  A
C721        C722   1.398       .  A
C721        H734   1.079       .  S
C722        C723   1.402       .  A
C722        H735   1.083       .  S
C723        C724   1.407       .  A
C723        C726   1.494       .  S
C724        C725   1.401       .  A
C724        H736   1.081       .  S
C725        H737   1.082       .  S
C726        C727   1.350       .  D
C726        H738   1.085       .  S
C727        C728   1.493       .  S
C727        H739   1.084       .  S
C728        C729   1.405       .  A
C728        C733   1.409       .  A
C729        C730   1.401       .  A
C729        H740   1.083       .  S
C730        C731   1.405       .  A
C730        H741   1.083       .  S
C731        C732   1.405       .  A
C732        C733   1.401       .  A
C732        H742   1.083       .  S
C733        H743   1.081       .  S
C744        C745   1.413       .  A
C744        C749   1.415       .  A
C745        C746   1.399       .  A
C745        H758   1.083       .  S
C746        C747   1.403       .  A
C746        H759   1.083       .  S
C747        C748   1.407       .  A
C747        C750   1.495       .  S
C748        C749   1.403       .  A
C748        H760   1.081       .  S
C749        H761   1.080       .  S
C750        C751   1.351       .  D
C750        H762   1.086       .  S
C751        C752   1.494       .  S
C751        H763   1.085       .  S
C752        C753   1.406       .  A
C752        C757   1.408       .  A
C753        C754   1.403       .  A
C753        H764   1.083       .  S
C754        C755   1.405       .  A
C754        H765   1.082       .  S
C755        C756   1.407       .  A
C756        C757   1.401       .  A
C756        H766   1.082       .  S
C757        H767   1.082       .  S
C768        C769   1.413       .  A
C768        C773   1.415       .  A
C769        C770   1.399       .  A
C769        H782   1.079       .  S
C770        C771   1.403       .  A
C770        H783   1.083       .  S
C771        C772   1.408       .  A
C771        C774   1.497       .  S
C772        C773   1.403       .  A
C772        H784   1.080       .  S
C773        H785   1.083       .  S
C774        C775   1.351       .  D
C774        H786   1.086       .  S
C775        C776   1.491       .  S
C775        H787   1.083       .  S
C776        C777   1.402       .  A
C776        C781   1.407       .  A
C777        C778   1.400       .  A
C777        H788   1.083       .  S
C778        C779   1.408       .  A
C778        H789   1.079       .  S
C779        C780   1.408       .  A
C780        C781   1.402       .  A
C780        H790   1.081       .  S
C781        H791   1.083       .  S
C792        C793   1.416       .  A
C792        C797   1.412       .  A
C793        C794   1.396       .  A
C793        H806   1.079       .  S
C794        C795   1.400       .  A
C794        H807   1.083       .  S
C795        C796   1.406       .  A
C795        C798   1.486       .  S
C796        C797   1.395       .  A
C796        H808   1.081       .  S
C797        H809   1.083       .  S
C798        C799   1.346       .  D
C798        H810   1.084       .  S
C799        C800   1.484       .  S
C799        H811   1.084       .  S
C800        C801   1.401       .  A
C800        C805   1.410       .  A
C801        C802   1.393       .  A
C801        H812   1.083       .  S
C802        C803   1.405       .  A
C802        H813   1.082       .  S
C803        C804   1.403       .  A
C804        C805   1.400       .  A
C804        H814   1.082       .  S
C805        H815   1.080       .  S
C816        C817   1.414       .  A
C816        C821   1.415       .  A
C817        C818   1.393       .  A
C817        H830   1.083       .  S
C818        C819   1.399       .  A
C818        H831   1.083       .  S
C819        C820   1.407       .  A
C819        C822   1.486       .  S
C820        C821   1.402       .  A
C820        H832   1.081       .  S
C821        H833   1.080       .  S
C822        C823   1.347       .  D
C822        H834   1.085       .  S
C823        C824   1.486       .  S
C823        H835   1.084       .  S
C824        C825   1.402       .  A
C824        C829   1.408       .  A
C825        C826   1.399       .  A
C825        H836   1.084       .  S
C826        C827   1.406       .  A
C826        H837   1.082       .  S
C827        C828   1.405       .  A
C828        C829   1.398       .  A
C828        H838   1.082       .  S
C829        H839   1.082       .  S
C840        C841   1.407       .  A
C840        C845   1.408       .  A
C841        C842   1.401       .  A
C841        H854   1.080       .  S
C842        C843   1.405       .  A
C842        H855   1.083       .  S
C843        C844   1.408       .  A
C843        C846   1.497       .  S
C844        C845   1.403       .  A
C844        H856   1.080       .  S
C845        H857   1.077       .  S
C846        C847   1.351       .  D
C846        H858   1.086       .  S
C847        C848   1.494       .  S
C847        H859   1.083       .  S
C848        C849   1.403       .  A
C848        C853   1.406       .  A
C849        C850   1.402       .  A
C849        H860   1.083       .  S
C850        C851   1.414       .  A
C850        H861   1.083       .  S
C851        C852   1.415       .  A
C852        C853   1.400       .  A
C852        H862   1.080       .  S
C853        H863   1.081       .  S
C864        C865   1.413       .  A
C864        C869   1.415       .  A
C865        C866   1.399       .  A
C865        H878   1.083       .  S
C866        C867   1.401       .  A
C866        H879   1.084       .  S
C867        C868   1.406       .  A
C867        C870   1.491       .  S
C868        C869   1.401       .  A
C868        H880   1.082       .  S
C869        H881   1.080       .  S
C870        C871   1.347       .  D
C870        H882   1.086       .  S
C871        C872   1.488       .  S
C871        H883   1.086       .  S
C872        C873   1.401       .  A
C872        C877   1.410       .  A
C873        C874   1.397       .  A
C873        H884   1.083       .  S
C874        C875   1.406       .  A
C874        H885   1.083       .  S
C875        C876   1.406       .  A
C876        C877   1.406       .  A
C876        H886   1.083       .  S
C877        H887   1.082       .  S
C888        C889   1.415       .  A
C888        C893   1.412       .  A
C889        C890   1.397       .  A
C889        H902   1.079       .  S
C890        C891   1.402       .  A
C890        H903   1.085       .  S
C891        C892   1.408       .  A
C891        C894   1.492       .  S
C892        C893   1.398       .  A
C892        H904   1.079       .  S
C893        H905   1.083       .  S
C894        C895   1.348       .  D
C894        H906   1.084       .  S
C895        C896   1.487       .  S
C895        H907   1.082       .  S
C896        C897   1.402       .  A
C896        C901   1.408       .  A
C897        C898   1.396       .  A
C897        H908   1.084       .  S
C898        C899   1.406       .  A
C898        H909   1.081       .  S
C899        C900   1.407       .  A
C900        C901   1.399       .  A
C900        H910   1.082       .  S
C901        H911   1.081       .  S
C912        C913   1.408       .  A
C912        C917   1.410       .  A
C913        C914   1.408       .  A
C913        H926   1.074       .  S
C914        C915   1.406       .  A
C914        H927   1.083       .  S
C915        C916   1.403       .  A
C915        C918   1.491       .  S
C916        C917   1.393       .  A
C916        H928   1.083       .  S
C917        H929   1.083       .  S
C918        C919   1.350       .  D
C918        H930   1.085       .  S
C919        C920   1.490       .  S
C919        H931   1.087       .  S
C920        C921   1.401       .  A
C920        C925   1.406       .  A
C921        C922   1.397       .  A
C921        H932   1.084       .  S
C922        C923   1.413       .  A
C922        H933   1.079       .  S
C923        C924   1.415       .  A
C924        C925   1.403       .  A
C924        H934   1.083       .  S
C925        H935   1.081       .  S
C936        C937   1.410       .  A
C936        C941   1.410       .  A
C937        C938   1.386       .  A
C937        H950   1.083       .  S
C938        C939   1.396       .  A
C938        H951   1.084       .  S
C939        C940   1.412       .  A
C939        C942   1.489       .  S
C940        C941   1.415       .  A
C940        H952   1.082       .  S
C941        H953   1.078       .  S
C942        C943   1.347       .  D
C942        H954   1.087       .  S
C943        C944   1.494       .  S
C943        H955   1.085       .  S
C944        C945   1.401       .  A
C944        C949   1.406       .  A
C945        C946   1.404       .  A
C945        H956   1.083       .  S
C946        C947   1.417       .  A
C946        H957   1.080       .  S
C947        C948   1.413       .  A
C948        C949   1.396       .  A
C948        H958   1.083       .  S
C949        H959   1.082       .  S
