geometry optimzed in LAMMPS
_audit_creation_date              2020-12-01 
_audit_creation_method            'lammps2cif' 
_symmetry_space_group_name_H-M    'P1' 
_symmetry_Int_Tables_number       1 
_symmetry_cell_setting            triclinic 
loop_ 
_symmetry_equiv_pos_as_xyz 
  x,y,z 
_cell_length_a                    50.3219139 
_cell_length_b                    49.11241558279535 
_cell_length_c                    38.920773781017445 
_cell_angle_alpha                 89.880073789151 
_cell_angle_beta                  90.32670262591417 
_cell_angle_gamma                 120.1311623339387 
loop_ 
_atom_site_label 
_atom_site_type_symbol 
_atom_site_fract_x 
_atom_site_fract_y 
_atom_site_fract_z 
_atom_site_charge 
C1          C  0.48725794  0.72174750  0.10741846     0.80100
N2          N  0.48185240  0.74290214  0.09094823    -0.78200
C3          C  0.48378363  0.76793560  0.10809367     0.82600
N4          N  0.49166311  0.77189801  0.14191973    -0.78100
C5          C  0.49731307  0.75094753  0.15845253     0.82700
N6          N  0.49512868  0.72602616  0.14109229    -0.79900
C7          C  0.51113247  0.73191682  0.24603779     0.80100
N8          N  0.50692945  0.73106866  0.21157567    -0.78200
C9          C  0.50353988  0.75358818  0.19540187     0.82600
N10         N  0.50400470  0.77714373  0.21392718    -0.78100
C11         C  0.50799147  0.77829711  0.24852978     0.82700
N12         N  0.51109621  0.75539826  0.26459659    -0.79900
C13         C  0.19074588  0.77694070  0.24456117     0.80100
N14         N  0.18890713  0.77822941  0.20990405    -0.78200
C15         C  0.16657893  0.75366123  0.19210374     0.82600
N16         N  0.14623189  0.72714421  0.20907486    -0.78100
C17         C  0.14823145  0.72513651  0.24378482     0.82700
N18         N  0.17048059  0.75025111  0.26138125    -0.79900
C19         C  0.19074225  0.77940933  0.10275394     0.80100
N20         N  0.19056198  0.77827595  0.13759122    -0.78200
C21         C  0.16601541  0.75522105  0.15451427     0.82600
N22         N  0.14157742  0.73314524  0.13643248    -0.78100
C23         C  0.14142077  0.73397413  0.10152927     0.82700
N24         N  0.16614550  0.75713806  0.08486862    -0.79900
C25         C  0.14956920  0.42832534  0.10238641     0.80100
N26         N  0.17436411  0.43376395  0.08357715    -0.78200
C27         C  0.20042271  0.43833845  0.09919743     0.82600
N28         N  0.20184743  0.43820170  0.13402324    -0.78100
C29         C  0.17727565  0.43322812  0.15304843     0.82700
N30         N  0.15120123  0.42849681  0.13718831    -0.79900
C31         C  0.16411212  0.44477452  0.24369509     0.80100
N32         N  0.16085515  0.44147027  0.20907061    -0.78200
C33         C  0.17962253  0.43484597  0.19049633     0.82600
N34         N  0.20153850  0.43117815  0.20664578    -0.78100
C35         C  0.20438310  0.43343236  0.24132789     0.82700
N36         N  0.18578986  0.44052423  0.25980069    -0.79900
C37         C  0.73944946  0.22784745  0.24050590     0.80100
N38         N  0.71707379  0.20249226  0.25733244    -0.78200
C39         C  0.69600594  0.17670225  0.23961533     0.82600
N40         N  0.69761356  0.17627877  0.20474816    -0.78100
C41         C  0.72026900  0.20142630  0.18788532     0.82700
N42         N  0.74108254  0.22691860  0.20588517    -0.79900
C43         C  0.74818613  0.22867128  0.09998308     0.80100
N44         N  0.74695801  0.22536344  0.13459746    -0.78200
C45         C  0.72144796  0.20257935  0.15031933     0.82600
N46         N  0.69643985  0.18304302  0.13125193    -0.78100
C47         C  0.69702470  0.18627043  0.09656990     0.82700
N48         N  0.72277394  0.20920979  0.08110627    -0.79900
C49         C  0.68830087  0.51126870  0.10871785     0.80100
N50         N  0.70962325  0.50787442  0.09085571    -0.78200
C51         C  0.73356458  0.50786491  0.10709512     0.82600
N52         N  0.73639397  0.51194532  0.14160658    -0.78100
C53         C  0.71566746  0.51575672  0.15976143     0.82700
N54         N  0.69161077  0.51542367  0.14330835    -0.79900
C55         C  0.70053225  0.52481575  0.25038634     0.80100
N56         N  0.69749462  0.52111026  0.21580886    -0.78200
C57         C  0.71956772  0.52035152  0.19692585     0.82600
N58         N  0.74496860  0.52321073  0.21272527    -0.78100
C59         C  0.74860318  0.52757972  0.24724302     0.82700
N60         N  0.72622901  0.52820309  0.26594741    -0.79900
C61         C  0.40749451  0.18236770  0.24369033     0.80100
N62         N  0.40748766  0.20628800  0.26117317    -0.78200
C63         C  0.41011007  0.23167165  0.24409751     0.82600
N64         N  0.41279195  0.23285609  0.20937050    -0.78100
C65         C  0.41313557  0.20920311  0.19180527     0.82700
N66         N  0.41045130  0.18395600  0.20902101    -0.79900
C67         C  0.41897664  0.18961762  0.10139178     0.80100
N68         N  0.42160255  0.21530948  0.08502831    -0.78200
C69         C  0.42118049  0.23865428  0.10323003     0.82600
N70         N  0.41855244  0.23643277  0.13782999    -0.78100
C71         C  0.41613823  0.21103241  0.15440325     0.82700
N72         N  0.41655685  0.18767722  0.13618688    -0.79900
O73         O  0.45762775  0.51914415  0.36745016    -0.80200
O74         O  0.44536043  0.43891087  0.37128219    -0.80300
O75         O  0.50573000  0.50269414  0.39095466    -0.80300
O76         O  0.37253805  0.43090236  0.40461897    -0.80200
O77         O  0.50284529  0.45634162  0.39540471    -0.80300
O78         O  0.40144828  0.46556437  0.36574543    -0.80300
O79         O  0.40828727  0.40507025  0.40487164    -0.80200
O80         O  0.49029280  0.54605240  0.40738561    -0.80300
C81         C  0.48082364  0.54447562  0.37700023     1.09400
C82         C  0.42251066  0.41169730  0.37618915     1.09300
C83         C  0.51574345  0.48384956  0.38308336     1.09500
C84         C  0.37638604  0.44169415  0.37416037     1.09300
O85         O  0.38538715  0.48308849  0.42996912    -0.80200
O86         O  0.49787470  0.47960749  0.45627070    -0.80300
O87         O  0.46404653  0.51832014  0.47150223    -0.80300
O88         O  0.43034879  0.43053809  0.47471152    -0.80200
O89         O  0.45614649  0.42092669  0.43685235    -0.80300
O90         O  0.44130611  0.53455792  0.43461013    -0.80300
O91         O  0.39491627  0.45856507  0.47137941    -0.80200
O92         O  0.52161709  0.53144930  0.45287210    -0.80300
Co93       Co  0.42270293  0.49927053  0.39965926     1.51500
Co94       Co  0.47037339  0.46109634  0.41174836     1.51700
Co95       Co  0.48227048  0.50750655  0.43320390     1.51600
Co96       Co  0.40390485  0.43369979  0.43892995     1.51500
O97         O  0.43978288  0.47410543  0.42116705    -1.42200
C98         C  0.38060286  0.47186278  0.46027737     1.09400
C99         C  0.52006228  0.50704262  0.46565642     1.09500
C100        C  0.45220536  0.53521946  0.46454440     1.09400
C101        C  0.44453088  0.41653313  0.46636107     1.09400
O102        O  0.98472221  0.51845102  0.47814977    -0.80200
O103        O  0.91736944  0.43750030  0.47519477    -0.80300
O104        O  0.91790766  0.50024564  0.45948119    -0.80300
O105        O  0.98074767  0.42952445  0.43867281    -0.80200
O106        O  0.87589657  0.45367545  0.45403592    -0.80300
O107        O  0.98762321  0.46459637  0.47791396    -0.80300
O108        O  0.91923603  0.40308933  0.44081586    -0.80200
O109        O  0.97569761  0.54501376  0.44036505    -0.80300
C110        C  0.98619386  0.54384047  0.46948379     1.09400
C111        C  0.91205942  0.40980700  0.46974344     1.09300
C112        C  0.88960376  0.48065039  0.46758428     1.09500
C113        C  0.98798207  0.44007291  0.46917338     1.09300
O114        O  0.01836623  0.48173695  0.41196338    -0.80200
O115        O  0.90104948  0.47840983  0.39290389    -0.80300
O116        O  0.97233857  0.51890602  0.37527597    -0.80300
O117        O  0.92021210  0.42819406  0.37139568    -0.80200
O118        O  0.88633126  0.41920807  0.41025933    -0.80300
O119        O  0.01296098  0.53352352  0.40925107    -0.80300
O120        O  0.98293355  0.45712824  0.37239880    -0.80200
O121        O  0.92752408  0.53026994  0.39866062    -0.80300
Co122      Co  0.99824282  0.49815266  0.44406974     1.51500
Co123      Co  0.91239494  0.45944915  0.43556707     1.51700
Co124      Co  0.94479982  0.50649375  0.41528218     1.51600
Co125      Co  0.95091685  0.43207930  0.40598408     1.51500
O126        O  0.95552257  0.47301780  0.42416059    -1.42200
C127        C  0.01076282  0.47090928  0.38153742     1.09400
C128        C  0.90492116  0.50599962  0.38590648     1.09500
C129        C  0.00106415  0.53548977  0.38088704     1.09400
C130        C  0.89252492  0.41374654  0.38064917     1.09400
O131        O  0.43882578  0.91126178  0.43767025    -0.80200
O132        O  0.45899200  0.04324581  0.43320612    -0.80300
O133        O  0.50111859  0.01149592  0.47310065    -0.80300
O134        O  0.37512303  0.95785700  0.44576620    -0.80200
O135        O  0.51444558  0.04690839  0.43224004    -0.80300
O136        O  0.39831829  0.93015788  0.45406491    -0.80300
O137        O  0.43243098  0.00294367  0.46818765    -0.80200
O138        O  0.46449529  0.94797700  0.47485331    -0.80300
C139        C  0.45130540  0.91933613  0.46691999     1.09400
C140        C  0.44547672  0.03225619  0.46184228     1.09300
C141        C  0.51696397  0.03953429  0.46301798     1.09500
C142        C  0.37581635  0.93513793  0.46027073     1.09300
O143        O  0.39302188  0.90034400  0.39438795    -0.80200
O144        O  0.49938958  0.01390542  0.36704049    -0.80300
O145        O  0.48830082  0.94422760  0.40723501    -0.80300
O146        O  0.40993760  0.00531267  0.40249320    -0.80200
O147        O  0.44463607  0.01259886  0.36523308    -0.80300
O148        O  0.45182361  0.93905388  0.37158892    -0.80300
O149        O  0.39289912  0.94471301  0.38601995    -0.80200
O150        O  0.52601333  0.00688687  0.40749307    -0.80300
Co151      Co  0.42651491  0.93792968  0.41085066     1.51500
Co152      Co  0.47794845  0.02640220  0.39971050     1.51700
Co153      Co  0.49266396  0.97779304  0.44039094     1.51600
Co154      Co  0.41536596  0.97358957  0.42903094     1.51500
O155        O  0.45821644  0.98268153  0.42002487    -1.42200
C156        C  0.38122440  0.91485133  0.38001988     1.09400
C157        C  0.52359154  0.01443787  0.37675091     1.09500
C158        C  0.47439378  0.93513903  0.37834274     1.09400
C159        C  0.42173166  0.01501174  0.37329640     1.09400
C160        C  0.42507878  0.26694160  0.08576448    -0.12100
C161        C  0.40616672  0.27980114  0.09308764     0.03400
C162        C  0.41017258  0.30615620  0.07494769    -0.12600
C163        C  0.43316181  0.32024440  0.05007462     0.18300
C164        C  0.45333587  0.30870552  0.04444508    -0.09600
C165        C  0.44876471  0.28181003  0.06173231    -0.02600
H166        H  0.39479395  0.31517426  0.07956303     0.04800
C167        C  0.43456980  0.34563074  0.02871272     0.20200
H168        H  0.46405612  0.27274510  0.05678452     0.10000
C169        C  0.44756822  0.37233501  0.54456541    -0.16000
C170        C  0.44975537  0.39696644  0.52441110     0.03000
C171        C  0.44452162  0.39257925  0.48874504    -0.11300
C172        C  0.43100811  0.36566108  0.97315053    -0.01300
C173        C  0.42805369  0.34093505  0.99331014    -0.06500
H174        H  0.45154141  0.37563181  0.57202512     0.06000
H175        H  0.42613836  0.36182016  0.94585063     0.09400
Br176      Br  0.48778015  0.32932747  0.01399074    -0.06200
Br177      Br  0.37333846  0.26137243  0.12581645    -0.03100
Br178      Br  0.46088753  0.43620787  0.54647596    -0.00300
Br179      Br  0.41352532  0.30083094  0.97145229    -0.04700
C180        C  0.42013444  0.16466022  0.08165836    -0.12100
C181        C  0.40052915  0.14986303  0.05331880     0.03400
C182        C  0.40314419  0.12701004  0.03456957    -0.12600
C183        C  0.42530855  0.11884783  0.04347136     0.18300
C184        C  0.44474375  0.13351204  0.07188075    -0.09600
C185        C  0.44180786  0.15595028  0.09095469    -0.02600
H186        H  0.39651325  0.11995161  0.50920799     0.04800
C187        C  0.42898654  0.09621331  0.02191540     0.20200
H188        H  0.45703386  0.16722052  0.11262486     0.10000
C189        C  0.45432814  0.10758870  0.00002038    -0.16000
C190        C  0.46435909  0.08511531  0.49091735     0.03000
C191        C  0.44150255  0.05326990  0.48592097    -0.11300
C192        C  0.41286606  0.04188880  0.50198472    -0.01300
C193        C  0.40790448  0.06369008  0.02303839    -0.06500
H194        H  0.47062667  0.13264083  0.99906080     0.06000
H195        H  0.39473853  0.01778504  0.49782266     0.09400
Br196      Br  0.47574763  0.12373647  0.08536131    -0.06200
Br197      Br  0.36913570  0.15915522  0.04002377    -0.03100
Br198      Br  0.50413292  0.10388468  0.47016787    -0.00300
Br199      Br  0.37229199  0.04652396  0.05182634    -0.04700
C200        C  0.40849430  0.25719880  0.26249472    -0.12100
C201        C  0.41977924  0.26647874  0.29635115     0.03400
C202        C  0.41751853  0.29075831  0.31222937    -0.12600
C203        C  0.40455138  0.30639143  0.29492841     0.18300
C204        C  0.39347710  0.29741976  0.26125730    -0.09600
C205        C  0.39541717  0.27298709  0.24536703    -0.02600
H206        H  0.42671587  0.29812613  0.33792743     0.04800
C207        C  0.40510361  0.33353736  0.31178101     0.20200
H208        H  0.38651487  0.26625170  0.21948078     0.10000
C209        C  0.42742353  0.36395400  0.30196779    -0.16000
C210        C  0.43208929  0.39025825  0.32074714     0.03000
C211        C  0.41447835  0.38613315  0.35068956    -0.11300
C212        C  0.39042467  0.35560719  0.35859172    -0.01300
C213        C  0.38568202  0.32949983  0.33942876    -0.06500
H214        H  0.44206345  0.36714548  0.28020138     0.06000
H215        H  0.37592730  0.35168068  0.38068163     0.09400
Br216      Br  0.37533507  0.31773494  0.23622656    -0.06200
Br217      Br  0.44087573  0.24918953  0.32143755    -0.03100
Br218      Br  0.46346792  0.43042525  0.30391321    -0.00300
Br219      Br  0.35294870  0.28864860  0.35236190    -0.04700
C220        C  0.41179812  0.03294326  0.35132562    -0.12100
C221        C  0.41937822  0.03854979  0.31609907     0.03400
C222        C  0.41523516  0.06096837  0.29840548    -0.12600
C223        C  0.40341210  0.07778501  0.31513139     0.18300
C224        C  0.39331518  0.07029960  0.34924285    -0.09600
C225        C  0.39755607  0.04805429  0.36707218    -0.02600
H226        H  0.42230541  0.06613790  0.27182594     0.04800
C227        C  0.40393158  0.10456920  0.29741660     0.20200
H228        H  0.39114339  0.04386499  0.39390184     0.10000
C229        C  0.38290460  0.09898606  0.27084118    -0.16000
C230        C  0.38353938  0.12410780  0.25312788     0.03000
C231        C  0.40532774  0.15530537  0.26229529    -0.11300
C232        C  0.42624357  0.16081972  0.28897971    -0.01300
C233        C  0.42600420  0.13573344  0.30617571    -0.06500
H234        H  0.36599652  0.07503644  0.26389198     0.06000
H235        H  0.44344593  0.18472219  0.29573725     0.09400
Br236      Br  0.37477623  0.09082775  0.37279645    -0.06200
Br237      Br  0.43542063  0.01660025  0.29057557    -0.03100
Br238      Br  0.35348110  0.11459887  0.21762506    -0.00300
Br239      Br  0.45728533  0.14508769  0.34010910    -0.04700
C240        C  0.67517567  0.52378358  0.27032205    -0.12100
C241        C  0.66856045  0.51248673  0.30450580     0.03400
C242        C  0.64217427  0.50884284  0.32032807    -0.12600
C243        C  0.62207672  0.51589338  0.30271400     0.18300
C244        C  0.62889334  0.52797208  0.26929579    -0.09600
C245        C  0.65535411  0.53198209  0.25341149    -0.02600
H246        H  0.63666118  0.49937644  0.34615402     0.04800
C247        C  0.59327906  0.50870237  0.31927998     0.20200
H248        H  0.65999004  0.54083242  0.22731857     0.10000
C249        C  0.59197609  0.53219834  0.33806511    -0.16000
C250        C  0.56631309  0.52502090  0.35797134     0.03000
C251        C  0.54155894  0.49368894  0.35926574    -0.11300
C252        C  0.54267616  0.47050155  0.33928326    -0.01300
C253        C  0.56819305  0.47786447  0.31915717    -0.06500
H254        H  0.61151897  0.55593836  0.33826412     0.06000
H255        H  0.52392570  0.44635882  0.33988520     0.09400
Br256      Br  0.60188752  0.53767019  0.24394788    -0.06200
Br257      Br  0.69231379  0.49873575  0.33041555    -0.03100
Br258      Br  0.56838194  0.55849433  0.38519861    -0.00300
Br259      Br  0.56834190  0.44499543  0.29272064    -0.04700
C260        C  0.77520523  0.52851977  0.26456198    -0.12100
C261        C  0.79072427  0.54909036  0.29225327     0.03400
C262        C  0.81431243  0.54728729  0.30941422    -0.12600
C263        C  0.82249662  0.52505618  0.29956654     0.18300
C264        C  0.80750594  0.50500498  0.27161648    -0.09600
C265        C  0.78432166  0.50709454  0.25407962    -0.02600
H266        H  0.82574639  0.56266386  0.33106971     0.04800
C267        C  0.84417372  0.52056268  0.32097427     0.20200
H268        H  0.77252271  0.49100644  0.23305510     0.10000
C269        C  0.83216786  0.49708873  0.34612237    -0.16000
C270        C  0.85152050  0.49132850  0.36681547     0.03000
C271        C  0.88365347  0.50958007  0.36272245    -0.11300
C272        C  0.89567373  0.53327243  0.33753113    -0.01300
C273        C  0.87613356  0.53861529  0.31642345    -0.06500
H274        H  0.80753569  0.48321989  0.34969379     0.06000
H275        H  0.92029138  0.54750018  0.33413138     0.09400
Br276      Br  0.81706715  0.47344713  0.25770438    -0.06200
Br277      Br  0.78122163  0.58042554  0.30733107    -0.03100
Br278      Br  0.83238076  0.45962457  0.40142787    -0.00300
Br279      Br  0.89382051  0.57021884  0.28142156    -0.04700
C280        C  0.54324668  0.50932063  0.49097956    -0.12100
C281        C  0.55969253  0.53327077  0.01103301     0.03400
C282        C  0.58253045  0.53334538  0.03189037    -0.12600
C283        C  0.58898690  0.50874369  0.03012021     0.18300
C284        C  0.57160671  0.48320810  0.00795236    -0.09600
C285        C  0.53991989  0.48121329  0.50467944    -0.02600
H286        H  0.59564120  0.55290334  0.04920207     0.04800
C287        C  0.61458716  0.51051968  0.05067534     0.20200
H288        H  0.51990801  0.45874034  0.49851841     0.10000
C289        C  0.61002652  0.50169300  0.08533870    -0.16000
C290        C  0.63356156  0.50197631  0.10509953     0.03000
C291        C  0.66248442  0.51136901  0.08996028    -0.11300
C292        C  0.66686091  0.52064043  0.05523511    -0.01300
C293        C  0.64334653  0.52036515  0.03573084    -0.06500
H294        H  0.58782654  0.49399809  0.09689992     0.06000
H295        H  0.68880264  0.52831388  0.04304507     0.09400
Br296      Br  0.57889634  0.44852701  0.00448207    -0.06200
Br297      Br  0.55218642  0.56768215  0.01599407    -0.03100
Br298      Br  0.62356338  0.48742296  0.15167377    -0.00300
Br299      Br  0.62794620  0.48798065  0.48768749    -0.04700
C300        C  0.75729716  0.50471538  0.08787716    -0.12100
C301        C  0.75283663  0.49282085  0.05387922     0.03400
C302        C  0.77662587  0.49129487  0.03729758    -0.12600
C303        C  0.80456263  0.50060594  0.05408591     0.18300
C304        C  0.80886277  0.51148734  0.08801564    -0.09600
C305        C  0.78552805  0.51375427  0.10449865    -0.02600
H306        H  0.77311668  0.48213040  0.01132705     0.04800
C307        C  0.82841335  0.49735292  0.03618617     0.20200
H308        H  0.78965800  0.52263013  0.13059572     0.10000
C309        C  0.85702975  0.52409207  0.51615014    -0.16000
C310        C  0.87765776  0.51936359  0.49665450     0.03000
C311        C  0.87265191  0.48854023  0.49257670    -0.11300
C312        C  0.84935307  0.46520235  0.01719008    -0.01300
C313        C  0.82815928  0.46866455  0.03675087    -0.06500
H314        H  0.86023996  0.54754932  0.51841097     0.06000
H315        H  0.84824924  0.44249402  0.01709073     0.09400
Br316      Br  0.84592194  0.52259529  0.11301133    -0.06200
Br317      Br  0.71473891  0.47616046  0.02890841    -0.03100
Br318      Br  0.91022839  0.55543766  0.47412818    -0.00300
Br319      Br  0.79837944  0.43324807  0.06266955    -0.04700
C320        C  0.66911049  0.16658891  0.07612892    -0.12100
C321        C  0.65207788  0.13362785  0.08010049     0.03400
C322        C  0.62560212  0.11585576  0.06033626    -0.12600
C323        C  0.61549110  0.13044187  0.03684598     0.18300
C324        C  0.63184349  0.16345299  0.03374298    -0.09600
C325        C  0.65874116  0.18121809  0.05292538    -0.02600
H326        H  0.62078604  0.08810411  0.57263762     0.04800
C327        C  0.58832828  0.11047500  0.01529852     0.20200
H328        H  0.67122543  0.20659783  0.05029567     0.10000
C329        C  0.55955867  0.09264199  0.03095036    -0.16000
C330        C  0.53696688  0.06359595  0.52165497     0.03000
C331        C  0.54119850  0.06287578  0.48587411    -0.11300
C332        C  0.57009065  0.08345782  0.47175431    -0.01300
C333        C  0.59126226  0.10691948  0.97986397    -0.06500
H334        H  0.55717605  0.09516169  0.05823047     0.06000
H335        H  0.57390668  0.08269912  0.44447962     0.09400
Br336      Br  0.61761591  0.18523735  0.00476006    -0.06200
Br337      Br  0.66477095  0.11147387  0.11061495    -0.03100
Br338      Br  0.49797862  0.03734284  0.54319873    -0.00300
Br339      Br  0.63031017  0.12795092  0.95713883    -0.04700
C340        C  0.77611145  0.25443114  0.08301310    -0.12100
C341        C  0.80436318  0.27362278  0.10066133     0.03400
C342        C  0.82875984  0.29890511  0.08369365    -0.12600
C343        C  0.82608937  0.30546390  0.04930169     0.18300
C344        C  0.79881360  0.28582449  0.03121823    -0.09600
C345        C  0.77420394  0.26073023  0.04801147    -0.02600
H346        H  0.84995172  0.31380454  0.09752080     0.04800
C347        C  0.85143460  0.33367857  0.03301195     0.20200
H348        H  0.75324062  0.24652327  0.03355824     0.10000
C349        C  0.86471838  0.32942876  0.51236238    -0.16000
C350        C  0.88743610  0.35334093  0.49206877     0.03000
C351        C  0.89323131  0.38461595  0.49501471    -0.11300
C352        C  0.87742077  0.38958891  0.02058794    -0.01300
C353        C  0.85526959  0.36366517  0.03888819    -0.06500
H354        H  0.85969942  0.30538986  0.50909735     0.06000
H355        H  0.87886192  0.41214716  0.02438838     0.09400
Br356      Br  0.78102962  0.31681539  0.50745953    -0.06200
Br357      Br  0.81252004  0.26732247  0.14748236    -0.03100
Br358      Br  0.90982070  0.34147923  0.46161940    -0.00300
Br359      Br  0.82933622  0.36992540  0.06996628    -0.04700
C360        C  0.55066338  0.02875015  0.35384101    -0.12100
C361        C  0.54771615  0.03020738  0.31779929     0.03400
C362        C  0.57321338  0.05097032  0.29825160    -0.12600
C363        C  0.60185615  0.07010460  0.31390128     0.18300
C364        C  0.60547184  0.06637192  0.34918181    -0.09600
C365        C  0.58004380  0.04573263  0.36880155    -0.02600
H366        H  0.57031161  0.05337505  0.27101524     0.04800
C367        C  0.62620470  0.09680055  0.29442384     0.20200
H368        H  0.58297696  0.04473413  0.39628600     0.10000
C369        C  0.63335961  0.12735186  0.30352312    -0.16000
C370        C  0.65561564  0.15355326  0.28571862     0.03000
C371        C  0.67139720  0.14946679  0.25815855    -0.11300
C372        C  0.66363778  0.11876980  0.24842947    -0.01300
C373        C  0.64122521  0.09250720  0.26633982    -0.06500
H374        H  0.62119339  0.13078620  0.32443911     0.06000
H375        H  0.67543758  0.11522038  0.22721305     0.09400
Br376      Br  0.64438219  0.09035404  0.37203805    -0.06200
Br377      Br  0.50951589  0.00510656  0.29379991    -0.03100
Br378      Br  0.66162956  0.19397752  0.29876648    -0.00300
Br379      Br  0.63254332  0.05141379  0.25234472    -0.04700
C380        C  0.86845415  0.38893774  0.35840958    -0.12100
C381        C  0.83810385  0.36833394  0.37002065     0.03400
C382        C  0.81746335  0.34344988  0.34914518    -0.12600
C383        C  0.82635459  0.33786111  0.31712608     0.18300
C384        C  0.85608331  0.35873787  0.30496775    -0.09600
C385        C  0.87670980  0.38403580  0.32544222    -0.02600
H386        H  0.79445571  0.32764747  0.35843085     0.04800
C387        C  0.80445351  0.30961006  0.29739878     0.20200
H388        H  0.89970297  0.39932856  0.31584877     0.10000
C389        C  0.79329162  0.31324549  0.26568835    -0.16000
C390        C  0.77218317  0.28703697  0.24667244     0.03000
C391        C  0.76160117  0.25635191  0.25964364    -0.11300
C392        C  0.77249554  0.25283355  0.29165571    -0.01300
C393        C  0.79389263  0.27907485  0.31038525    -0.06500
H394        H  0.80085646  0.33665345  0.25583928     0.06000
H395        H  0.76478907  0.22952281  0.30188293     0.09400
Br396      Br  0.87035121  0.35250656  0.26166775    -0.06200
Br397      Br  0.82304423  0.37082328  0.41455582    -0.03100
Br398      Br  0.75748583  0.29516579  0.20438439    -0.00300
Br399      Br  0.80889986  0.27188417  0.35291734    -0.04700
C400        C  0.34992320  0.42979135  0.35036366    -0.12100
C401        C  0.35356990  0.43692308  0.31487284     0.03400
C402        C  0.32860828  0.43368593  0.29559125    -0.12600
C403        C  0.29999097  0.42294722  0.31106340     0.18300
C404        C  0.29544591  0.41215713  0.34515963    -0.09600
C405        C  0.32030963  0.41555529  0.36452701    -0.02600
H406        H  0.33188780  0.44099079  0.26892807     0.04800
C407        C  0.27602195  0.42594457  0.29257338     0.20200
H408        H  0.31676426  0.40921783  0.39147002     0.10000
C409        C  0.25931560  0.40477620  0.26622242    -0.16000
C410        C  0.23576532  0.40667066  0.24914307     0.03000
C411        C  0.22869749  0.43008555  0.25863718    -0.11300
C412        C  0.24575906  0.45140448  0.28483399    -0.01300
C413        C  0.26951559  0.44975147  0.30145796    -0.06500
H414        H  0.26432392  0.38646126  0.25930478     0.06000
H415        H  0.24102285  0.46987505  0.29193038     0.09400
Br416      Br  0.25614502  0.39474282  0.36698943    -0.06200
Br417      Br  0.39190677  0.45163180  0.29141821    -0.03100
Br418      Br  0.21302018  0.37546334  0.21470780    -0.00300
Br419      Br  0.29311111  0.48118515  0.33531722    -0.04700
C420        C  0.03446100  0.47214060  0.35791409    -0.12100
C421        C  0.02700217  0.45527066  0.32639425     0.03400
C422        C  0.04999981  0.45400489  0.30772109    -0.12600
C423        C  0.08038524  0.46926298  0.31950528     0.18300
C424        C  0.08832221  0.48761049  0.34945622    -0.09600
C425        C  0.06549298  0.48892262  0.36839432    -0.02600
H426        H  0.04398372  0.44016272  0.28433919     0.04800
C427        C  0.10301705  0.46413142  0.30119174     0.20200
H428        H  0.07206554  0.50254593  0.39193007     0.10000
C429        C  0.11644379  0.48107834  0.27114132    -0.16000
C430        C  0.13691489  0.47559389  0.25238214     0.03000
C431        C  0.14400295  0.45258889  0.26366306    -0.11300
C432        C  0.13097053  0.43614480  0.29422072    -0.01300
C433        C  0.11038888  0.44156265  0.31281229    -0.06500
H434        H  0.11094940  0.49862770  0.26227857     0.06000
H435        H  0.13611668  0.41836194  0.30314065     0.09400
Br436      Br  0.12995102  0.51052089  0.36576780    -0.06200
Br437      Br  0.98619800  0.43204267  0.30732167    -0.03100
Br438      Br  0.15560854  0.50141050  0.21270554    -0.00300
Br439      Br  0.09187070  0.41677699  0.35315382    -0.04700
C440        C  0.35636710  0.47182743  0.48192245    -0.12100
C441        C  0.33193978  0.47489345  0.46787244     0.03400
C442        C  0.30831448  0.47186274  0.48909256    -0.12600
C443        C  0.30885997  0.47097520  0.01987005     0.18300
C444        C  0.33104955  0.46420593  0.03274977    -0.09600
C445        C  0.35572934  0.46920878  0.01219981    -0.02600
H446        H  0.28945893  0.47364915  0.47795381     0.04800
C447        C  0.28119190  0.46356716  0.03993355     0.20200
H448        H  0.37216183  0.46328679  0.02271365     0.10000
C449        C  0.25256662  0.43912138  0.02868054    -0.16000
C450        C  0.22593648  0.43040425  0.04758829     0.03000
C451        C  0.22783983  0.44612713  0.07861651    -0.11300
C452        C  0.25649359  0.47076745  0.08966800    -0.01300
C453        C  0.28296730  0.47989083  0.07033071    -0.06500
H454        H  0.25102897  0.42647418  0.00528538     0.06000
H455        H  0.25818074  0.48355630  0.11299608     0.09400
Br456      Br  0.32722128  0.44527194  0.07704003    -0.06200
Br457      Br  0.32758876  0.48102192  0.41986678    -0.03100
Br458      Br  0.18808344  0.39583488  0.03061178    -0.00300
Br459      Br  0.32068838  0.51563711  0.08558113    -0.04700
C460        C  0.12231263  0.42527196  0.08482115    -0.12100
C461        C  0.09225310  0.40114667  0.09265515     0.03400
C462        C  0.06728452  0.39915939  0.07441017    -0.12600
C463        C  0.07196290  0.42101875  0.04856701     0.18300
C464        C  0.10194288  0.44552681  0.04139684    -0.09600
C465        C  0.12679292  0.44720380  0.05917174    -0.02600
H466        H  0.04420787  0.38043524  0.08019076     0.04800
C467        C  0.04555844  0.41915008  0.03003168     0.20200
H468        H  0.14976788  0.46614813  0.05336041     0.10000
C469        C  0.02648757  0.42784600  0.04706684    -0.16000
C470        C  0.00592078  0.43358226  0.02853870     0.03000
C471        C  0.00139296  0.42662609  0.49293434    -0.11300
C472        C  0.01586351  0.41109484  0.47886829    -0.01300
C473        C  0.03614871  0.40593807  0.49859339    -0.06500
H474        H  0.02875554  0.43177292  0.07456341     0.06000
H475        H  0.01326256  0.40502170  0.45185057     0.09400
Br476      Br  0.10541157  0.47433189  0.50650093    -0.06200
Br477      Br  0.08418043  0.36947240  0.12647825    -0.03100
Br478      Br  0.98004208  0.44460581  0.05384867    -0.00300
Br479      Br  0.05681487  0.38658507  0.47722236    -0.04700
C480        C  0.11434325  0.70963830  0.08233821    -0.12100
C481        C  0.11667861  0.69860681  0.04955201     0.03400
C482        C  0.09060502  0.67386897  0.03409101    -0.12600
C483        C  0.06205958  0.65969705  0.05052076     0.18300
C484        C  0.05932879  0.67125904  0.08245207    -0.09600
C485        C  0.08530755  0.69600825  0.09808476    -0.02600
H486        H  0.09900893  0.66717249  0.49903362     0.04800
C487        C  0.03667929  0.63066556  0.03543926     0.20200
H488        H  0.08280290  0.70436645  0.12289965     0.10000
C489        C  0.03051914  0.60170126  0.04905079    -0.16000
C490        C  0.01157770  0.57358523  0.03155421     0.03000
C491        C  0.00294048  0.57272828  0.49085040    -0.11300
C492        C  0.00924318  0.60175212  0.47653464    -0.01300
C493        C  0.02171530  0.63131380  0.00517380    -0.06500
H494        H  0.04171189  0.60111447  0.07268554     0.06000
H495        H  0.99962937  0.60250248  0.45184383     0.09400
Br496      Br  0.02063580  0.65380711  0.10555056    -0.06200
Br497      Br  0.15473643  0.71374199  0.02543359    -0.03100
Br498      Br  0.00556752  0.53576750  0.05340275    -0.00300
Br499      Br  0.02717916  0.67008952  0.98695295    -0.04700
C500        C  0.35054368  0.91408331  0.48332929    -0.12100
C501        C  0.35533134  0.90086375  0.51330832     0.03400
C502        C  0.32602708  0.87456326  0.03369662    -0.12600
C503        C  0.29706383  0.87131999  0.02807979     0.18300
C504        C  0.29364447  0.89004966  0.00314923    -0.09600
C505        C  0.31881500  0.91082680  0.98333388    -0.02600
H506        H  0.32884557  0.86055247  0.05337073     0.04800
C507        C  0.27041505  0.84767241  0.04773018     0.20200
H508        H  0.31533953  0.92427322  0.96351805     0.10000
C509        C  0.26003514  0.85718173  0.07609599    -0.16000
C510        C  0.23416826  0.83537687  0.09448223     0.03000
C511        C  0.21817550  0.80344275  0.08430595    -0.11300
C512        C  0.22876295  0.79408872  0.05588222    -0.01300
C513        C  0.25471746  0.81586162  0.03773342    -0.06500
H514        H  0.27190919  0.88172837  0.08367557     0.06000
H515        H  0.21702003  0.76965953  0.04796308     0.09400
Br516      Br  0.25471426  0.88710376  0.99442518    -0.06200
Br517      Br  0.39560730  0.91242540  0.52988968    -0.03100
Br518      Br  0.22076745  0.85101855  0.13175276    -0.00300
Br519      Br  0.26399158  0.80281418  0.48663543    -0.04700
C520        C  0.12683636  0.69535938  0.26176146    -0.12100
C521        C  0.13579355  0.68431249  0.29073535     0.03400
C522        C  0.11464430  0.65594244  0.30642917    -0.12600
C523        C  0.08451346  0.63799567  0.29389436     0.18300
C524        C  0.07562619  0.64871829  0.26483942    -0.09600
C525        C  0.09673257  0.67696761  0.24895175    -0.02600
H526        H  0.12161640  0.64804943  0.32893844     0.04800
C527        C  0.06200600  0.61001217  0.31356787     0.20200
H528        H  0.08937384  0.68480753  0.22672143     0.10000
C529        C  0.03797911  0.61128208  0.33003460    -0.16000
C530        C  0.01741569  0.58670822  0.35103487     0.03000
C531        C  0.02069228  0.56011796  0.35613461    -0.11300
C532        C  0.04470250  0.55867921  0.33967433    -0.01300
C533        C  0.06519272  0.58327728  0.31827731    -0.06500
H534        H  0.03571326  0.63198963  0.32725434     0.06000
H535        H  0.04762548  0.53849389  0.34363126     0.09400
Br536      Br  0.03495444  0.62550758  0.24574218    -0.06200
Br537      Br  0.17669965  0.70566315  0.30953711    -0.03100
Br538      Br  0.98696531  0.59219799  0.37422651    -0.00300
Br539      Br  0.09680513  0.57914896  0.29577606    -0.04700
C540        C  0.35409272  0.89781696  0.35709127    -0.12100
C541        C  0.34397208  0.86686034  0.34513822     0.03400
C542        C  0.31677589  0.85090560  0.32622515    -0.12600
C543        C  0.29924022  0.86496789  0.31837104     0.11400
C544        C  0.30912531  0.89571617  0.32988721    -0.09600
C545        C  0.33640437  0.91191926  0.34895502    -0.02600
H546        H  0.30919708  0.82717789  0.31737273     0.04800
C547        C  0.27100623  0.84670181  0.29772772     0.20200
H548        H  0.34344244  0.93545385  0.35799169     0.10000
C549        C  0.24212598  0.83474729  0.31319512    -0.16000
C550        C  0.21530877  0.81292527  0.29586075     0.03000
C551        C  0.21738259  0.80258681  0.26270779    -0.11300
C552        C  0.24615870  0.81610721  0.24665313    -0.01300
C553        C  0.27278678  0.83789226  0.26383903    -0.06500
H554        H  0.24054890  0.84166300  0.33918630     0.06000
H555        H  0.24818902  0.80877698  0.22102478     0.09400
Br556      Br  0.28639461  0.91654954  0.31979004    -0.06200
Br557      Br  0.36568929  0.84440769  0.35265772    -0.03100
Br558      Br  0.17661426  0.79887245  0.31806676    -0.00300
Br559      Br  0.31125229  0.85430281  0.24029036    -0.04700
C560        C  0.51314940  0.70608531  0.26344513    -0.12100
C561        C  0.52392026  0.68780630  0.24676152     0.03400
C562        C  0.52317124  0.66235149  0.26389612    -0.12600
C563        C  0.51143626  0.65425695  0.29721360     0.18300
C564        C  0.50123157  0.67266151  0.31405371    -0.09600
C565        C  0.50243602  0.69840489  0.29731637    -0.02600
H566        H  0.53128202  0.64839759  0.25093635     0.04800
C567        C  0.50846349  0.62577155  0.31374523     0.20200
H568        H  0.49374416  0.71172144  0.31052092     0.10000
C569        C  0.52461062  0.62886029  0.34427899    -0.16000
C570        C  0.51744181  0.60266073  0.36475998     0.03000
C571        C  0.49413094  0.57234082  0.35401047    -0.11300
C572        C  0.48040318  0.56920313  0.32152894    -0.01300
C573        C  0.48705444  0.59554372  0.30167835    -0.06500
H574        H  0.54146410  0.65211365  0.35336892     0.06000
H575        H  0.46282131  0.54631558  0.31235645     0.09400
Br576      Br  0.48329820  0.66231141  0.35903796    -0.06200
Br577      Br  0.54051089  0.69609832  0.20107318    -0.03100
Br578      Br  0.53879120  0.61122314  0.40803769    -0.00300
Br579      Br  0.46365424  0.58905774  0.26028487    -0.04700
C580        C  0.48290076  0.91660278  0.35507695    -0.12100
C581        C  0.46637498  0.90143972  0.32470949     0.03400
C582        C  0.47250766  0.88007147  0.30762600    -0.12600
C583        C  0.49505303  0.87366841  0.31983825     0.18300
C584        C  0.51278695  0.89004019  0.34856246    -0.09600
C585        C  0.50674414  0.91124580  0.36578821    -0.02600
H586        H  0.45920759  0.86789806  0.28501400     0.04800
C587        C  0.49930631  0.84929101  0.30281161     0.20200
H588        H  0.52025199  0.92275163  0.38849758     0.10000
C589        C  0.51999693  0.85779785  0.27552439    -0.16000
C590        C  0.52394025  0.83508751  0.25835214     0.03000
C591        C  0.50692775  0.80324399  0.26844568    -0.11300
C592        C  0.48700652  0.79494043  0.29657940    -0.01300
C593        C  0.48300921  0.81768773  0.31365844    -0.06500
H594        H  0.53306658  0.88220125  0.26752732     0.06000
H595        H  0.47377163  0.77054788  0.30458304     0.09400
Br596      Br  0.54471163  0.88317992  0.36595195    -0.06200
Br597      Br  0.43500526  0.90804876  0.30492092    -0.03100
Br598      Br  0.55379551  0.84897358  0.22227826    -0.00300
Br599      Br  0.45464338  0.80461948  0.35117720    -0.04700
C600        C  0.45439950  0.55856024  0.49002098    -0.12100
C601        C  0.43308145  0.56930793  0.49091486     0.03400
C602        C  0.43770776  0.59330829  0.51355854    -0.12600
C603        C  0.46751995  0.61324379  0.03011865     0.18300
C604        C  0.48117199  0.59484588  0.03677401    -0.09600
C605        C  0.47540139  0.57002798  0.01469708    -0.02600
H606        H  0.42143136  0.60163702  0.51381801     0.04800
C607        C  0.47490469  0.64138504  0.05068290     0.20200
H608        H  0.48696344  0.55683849  0.01959885     0.10000
C609        C  0.46563441  0.63785495  0.08502868    -0.16000
C610        C  0.47014782  0.66379257  0.10436633     0.03000
C611        C  0.48373732  0.69392152  0.08894850    -0.11300
C612        C  0.49337969  0.69739491  0.05465807    -0.01300
C613        C  0.48936459  0.67152232  0.03563297    -0.06500
H614        H  0.45419020  0.61465300  0.09660370     0.06000
H615        H  0.50423922  0.72039812  0.04262311     0.09400
Br616      Br  0.50931289  0.60391493  0.07429067    -0.06200
Br617      Br  0.39756156  0.55319865  0.46169241    -0.03100
Br618      Br  0.45506463  0.65570832  0.15068416    -0.00300
Br619      Br  0.49257056  0.67109272  0.49146057    -0.04700
C620        C  0.45221965  0.89589836  0.49003458    -0.12100
C621        C  0.47473780  0.90861353  0.01978470     0.03400
C622        C  0.47731913  0.88614617  0.03935279    -0.12600
C623        C  0.45854226  0.85395945  0.03269546     0.18300
C624        C  0.43273630  0.84055592  0.50355152    -0.09600
C625        C  0.43116665  0.86377808  0.48438120    -0.02600
H626        H  0.49476855  0.89384980  0.05924133     0.04800
C627        C  0.46427194  0.83139936  0.05172159     0.20200
H628        H  0.41355067  0.85663245  0.46477259     0.10000
C629        C  0.45772239  0.82680615  0.08687448    -0.16000
C630        C  0.46387576  0.80640263  0.10597030     0.03000
C631        C  0.47713613  0.79031575  0.08970123    -0.11300
C632        C  0.48373585  0.79520174  0.05442112    -0.01300
C633        C  0.47763699  0.81564806  0.03551332    -0.06500
H634        H  0.44753784  0.83902700  0.09945407     0.06000
H635        H  0.49416981  0.78340408  0.04147458     0.09400
Br636      Br  0.40305432  0.79724309  0.49470878    -0.06200
Br637      Br  0.50321918  0.95194400  0.03066830    -0.03100
Br638      Br  0.45184714  0.80053157  0.15340440    -0.00300
Br639      Br  0.48917832  0.82230544  0.98795396    -0.04700
C640        C  0.47709246  0.71468360  0.61007597     0.80100
N641        N  0.47102224  0.73485188  0.59250764    -0.78200
C642        C  0.47373303  0.76086763  0.60799036     0.82600
N643        N  0.48330676  0.76712251  0.64118256    -0.78100
C644        C  0.48965987  0.74726000  0.65890308     0.82700
N645        N  0.48657561  0.72110194  0.64326081    -0.79900
C646        C  0.51455096  0.73793218  0.74510073     0.80100
N647        N  0.50577070  0.73336438  0.71172871    -0.78200
C648        C  0.49972832  0.75370390  0.69480824     0.82600
N649        N  0.50204944  0.77900153  0.71163344    -0.78100
C650        C  0.51056637  0.78393754  0.74531091     0.82700
N651        N  0.51636497  0.76305422  0.76208644    -0.79900
C652        C  0.19152784  0.76884715  0.74025123     0.80100
N653        N  0.19092687  0.77123054  0.70558434    -0.78200
C654        C  0.16903310  0.74724243  0.68658843     0.82600
N655        N  0.14802290  0.72017474  0.70242498    -0.78100
C656        C  0.14895565  0.71714390  0.73717440     0.82700
N657        N  0.17059329  0.74177928  0.75574168    -0.79900
C658        C  0.19499329  0.77681602  0.59837520     0.80100
N659        N  0.19426332  0.77401205  0.63313878    -0.78200
C660        C  0.16928608  0.75033196  0.64898092     0.82600
N661        N  0.14501230  0.72926677  0.62982810    -0.78100
C662        C  0.14543118  0.73175090  0.59499689     0.82700
N663        N  0.17047483  0.75556669  0.57957535    -0.79900
C664        C  0.14957917  0.43118138  0.60263511     0.80100
N665        N  0.17427960  0.43539384  0.58429839    -0.78200
C666        C  0.20060865  0.44149204  0.60066606     0.82600
N667        N  0.20225280  0.44388389  0.63539115    -0.78100
C668        C  0.17778809  0.44011390  0.65374025     0.82700
N669        N  0.15153561  0.43390956  0.63733477    -0.79900
C670        C  0.16288412  0.45018813  0.74436621     0.80100
N671        N  0.16047294  0.44825165  0.70955352    -0.78200
C672        C  0.17977070  0.44221617  0.69110361     0.82600
N673        N  0.20122716  0.43801823  0.70743931    -0.78100
C674        C  0.20324956  0.43918689  0.74210227     0.82700
N675        N  0.18418841  0.44549626  0.76057910    -0.79900
C676        C  0.74724475  0.22504091  0.75075475     0.80100
N677        N  0.72612158  0.19840544  0.76701122    -0.78200
C678        C  0.70503563  0.17305918  0.74864931     0.82600
N679        N  0.70522436  0.17509458  0.71372971    -0.78100
C680        C  0.72642402  0.20152699  0.69738267     0.82700
N681        N  0.74736021  0.22636190  0.71600878    -0.79900
C682        C  0.74769446  0.23285646  0.60911019     0.80100
N683        N  0.74894930  0.22901417  0.64352416    -0.78200
C684        C  0.72533027  0.20446811  0.66000198     0.82600
N685        N  0.70003012  0.18378844  0.64201035    -0.78100
C686        C  0.69817758  0.18764718  0.60772380     0.82700
N687        N  0.72189830  0.21237091  0.59141108    -0.79900
C688        C  0.69102176  0.51160339  0.60474047     0.80100
N689        N  0.71315831  0.51011904  0.58622721    -0.78200
C690        C  0.73620437  0.50808998  0.60216431     0.82600
N691        N  0.73718108  0.50807136  0.63699036    -0.78100
C692        C  0.71535314  0.50948836  0.65568656     0.82700
N693        N  0.69216639  0.51090903  0.63952217    -0.79900
C694        C  0.69496447  0.50805246  0.74675098     0.80100
N695        N  0.69352617  0.50758377  0.71194690    -0.78200
C696        C  0.71714541  0.50996175  0.69313367     0.82600
N697        N  0.74257539  0.51318798  0.70917706    -0.78100
C698        C  0.74456296  0.51444428  0.74397551     0.82700
N699        N  0.72059082  0.51163010  0.76259380    -0.79900
C700        C  0.39387385  0.17518056  0.74547692     0.80100
N701        N  0.39484840  0.19972984  0.76272740    -0.78200
C702        C  0.39915445  0.22577873  0.74557699     0.82600
N703        N  0.40256584  0.22695827  0.71088088    -0.78100
C704        C  0.40195576  0.20265689  0.69354906     0.82700
N705        N  0.39774045  0.17692182  0.71095570    -0.79900
C706        C  0.41439720  0.18449175  0.60469011     0.80100
N707        N  0.41947484  0.21103379  0.58818931    -0.78200
C708        C  0.41795931  0.23415510  0.60546025     0.82600
N709        N  0.41197139  0.23106934  0.63953113    -0.78100
C710        C  0.40731357  0.20492608  0.65643999     0.82700
N711        N  0.40868035  0.18164382  0.63903275    -0.79900
O712        O  0.46010045  0.52291845  0.86353523    -0.80200
O713        O  0.44443312  0.44078709  0.86921831    -0.80300
O714        O  0.50690805  0.50289200  0.88835511    -0.80300
O715        O  0.37303223  0.43750989  0.90148850    -0.80200
O716        O  0.50035557  0.45512616  0.89511130    -0.80300
O717        O  0.40228284  0.47095292  0.86186611    -0.80300
O718        O  0.40628628  0.40880696  0.90279490    -0.80200
O719        O  0.49364743  0.54915282  0.90312098    -0.80300
C720        C  0.48349482  0.54810916  0.87310589     1.09400
C721        C  0.42115474  0.41399445  0.87463724     1.09300
C722        C  0.51496733  0.48212531  0.88176706     1.09500
C723        C  0.37685259  0.44788933  0.87090499     1.09300
O724        O  0.38757629  0.49064715  0.92571248    -0.80200
O725        O  0.49665441  0.48065035  0.95441939    -0.80300
O726        O  0.46623999  0.52288559  0.96736807    -0.80300
O727        O  0.42873761  0.43523374  0.97255968    -0.80200
O728        O  0.45301752  0.42277475  0.93575370    -0.80300
O729        O  0.44499257  0.54011979  0.92978718    -0.80300
O730        O  0.39648085  0.46606037  0.96742184    -0.80200
O731        O  0.52339791  0.53259876  0.95018991    -0.80300
Co732      Co  0.42494398  0.50472217  0.89545797     1.51500
Co733      Co  0.46942771  0.46278446  0.90974762     1.51700
Co734      Co  0.48387007  0.51028322  0.92973525     1.51600
Co735      Co  0.40357519  0.43926353  0.93597379     1.51500
O736        O  0.44055913  0.47832559  0.91761554    -1.42200
C737        C  0.38261402  0.47976046  0.95620056     1.09400
C738        C  0.51997574  0.50744893  0.96338683     1.09500
C739        C  0.45490522  0.54021986  0.96005167     1.09400
C740        C  0.44123983  0.41944225  0.96501175     1.09400
O741        O  0.98381577  0.52148271  0.98337406    -0.80200
O742        O  0.91807215  0.43988448  0.97917993    -0.80300
O743        O  0.91671451  0.50313470  0.96390938    -0.80300
O744        O  0.98316152  0.43531806  0.93993537    -0.80200
O745        O  0.87578809  0.45570044  0.95869165    -0.80300
O746        O  0.98928390  0.46861749  0.98121248    -0.80300
O747        O  0.92199715  0.40768281  0.94288464    -0.80200
O748        O  0.97458568  0.54859657  0.94632556    -0.80300
C749        C  0.98427326  0.54661441  0.97575993     1.09400
C750        C  0.91424050  0.41290342  0.97227042     1.09300
C751        C  0.88858189  0.48279897  0.97191669     1.09500
C752        C  0.99045307  0.44488078  0.97070849     1.09300
O753        O  0.01965000  0.48847989  0.91576759    -0.80200
O754        O  0.90163504  0.48105560  0.89763814    -0.80300
O755        O  0.97190147  0.52282723  0.88028686    -0.80300
O756        O  0.92154712  0.43399840  0.87481754    -0.80200
O757        O  0.88767562  0.42268202  0.91439735    -0.80300
O758        O  0.01254574  0.53892122  0.91443067    -0.80300
O759        O  0.98484952  0.46437211  0.87530883    -0.80200
O760        O  0.92621409  0.53302186  0.90291063    -0.80300
Co761      Co  0.99868749  0.50303842  0.94863140     1.51500
Co762      Co  0.91289317  0.46252594  0.94037278     1.51700
Co763      Co  0.94439575  0.51019099  0.92016866     1.51600
Co764      Co  0.95289779  0.43787614  0.90842828     1.51500
O765        O  0.95613395  0.47737324  0.92882698    -1.42200
C766        C  0.01258247  0.47830411  0.88508791     1.09400
C767        C  0.90460562  0.50804795  0.88976213     1.09500
C768        C  0.00062064  0.53946793  0.88547717     1.09400
C769        C  0.89414606  0.41770282  0.88473035     1.09400
O770        O  0.43746004  0.91158095  0.94001922    -0.80200
O771        O  0.45182199  0.04079136  0.92728374    -0.80300
O772        O  0.49843364  0.01411163  0.96858391    -0.80300
O773        O  0.37116992  0.95560808  0.94798670    -0.80200
O774        O  0.50787321  0.04679698  0.92535736    -0.80300
O775        O  0.39534546  0.92905731  0.95716628    -0.80300
O776        O  0.42867800  0.00308683  0.96596701    -0.80200
O777        O  0.46416734  0.95014210  0.97483105    -0.80300
C778        C  0.45103045  0.92115597  0.96854095     1.09400
C779        C  0.44048156  0.03179475  0.95722587     1.09300
C780        C  0.51231791  0.04162090  0.95633347     1.09500
C781        C  0.37265175  0.93377802  0.96358566     1.09300
O782        O  0.38923979  0.89656046  0.89929154    -0.80200
O783        O  0.49207314  0.00990359  0.86288733    -0.80300
O784        O  0.48529372  0.94424039  0.90611371    -0.80300
O785        O  0.40267575  0.00007743  0.90057576    -0.80200
O786        O  0.43574770  0.00531066  0.86224540    -0.80300
O787        O  0.44639477  0.93620060  0.87264430    -0.80300
O788        O  0.38668596  0.93925289  0.88877783    -0.80200
O789        O  0.52146600  0.00732777  0.90319384    -0.80300
Co790      Co  0.42236108  0.93566438  0.91286027     1.51500
Co791      Co  0.47056634  0.02298133  0.89482738     1.51700
Co792      Co  0.48986036  0.97885174  0.93797861     1.51600
Co793      Co  0.41056541  0.97109975  0.92930033     1.51500
O794        O  0.45341740  0.98104652  0.91874760    -1.42200
C795        C  0.37584590  0.90927779  0.88459789     1.09400
C796        C  0.51785725  0.01431836  0.87268694     1.09500
C797        C  0.47020987  0.93409991  0.87798191     1.09400
C798        C  0.41336728  0.00843764  0.87068871     1.09400
C799        C  0.42397024  0.26293552  0.58758554    -0.12100
C800        C  0.40370710  0.27479478  0.59005518     0.03400
C801        C  0.40990184  0.30181327  0.57179419    -0.12600
C802        C  0.43615644  0.31727599  0.55129948     0.18300
C803        C  0.45701365  0.30618307  0.54990436    -0.09600
C804        C  0.45060531  0.27888881  0.56768105    -0.02600
H805        H  0.39374152  0.31025517  0.57271850     0.04800
C806        C  0.44004278  0.34340526  0.52951141     0.20200
H807        H  0.46655491  0.27021022  0.56617728     0.10000
C808        C  0.44208185  0.37459737  0.04375442    -0.16000
C809        C  0.44415719  0.39919855  0.02358872     0.03000
C810        C  0.43913470  0.39482801  0.98789457    -0.11300
C811        C  0.43750931  0.36378197  0.47377557    -0.01300
C812        C  0.43477716  0.33909378  0.49390409    -0.06500
H813        H  0.44663079  0.37812487  0.07110960     0.06000
H814        H  0.43293337  0.36004387  0.44642271     0.09400
Br815      Br  0.49444799  0.32766497  0.52419452    -0.06200
Br816      Br  0.36618954  0.25380448  0.61571136    -0.03100
Br817      Br  0.45528271  0.43849270  0.04556963    -0.00300
Br818      Br  0.42184159  0.29936403  0.47189429    -0.04700
C819        C  0.41636513  0.15961601  0.58553475    -0.12100
C820        C  0.40282384  0.14957966  0.55269052     0.03400
C821        C  0.40678838  0.12734698  0.53447355    -0.12600
C822        C  0.42427676  0.11497299  0.54830518     0.18300
C823        C  0.43753133  0.12468753  0.58115483    -0.09600
C824        C  0.43322853  0.14657394  0.59966173    -0.02600
H825        H  0.38811375  0.11583520  0.01273552     0.04800
C826        C  0.42974818  0.09318840  0.52739267     0.20200
H827        H  0.44387608  0.15413481  0.62473471     0.10000
C828        C  0.45843708  0.10452964  0.51188692    -0.16000
C829        C  0.45892137  0.08715319  0.97921719     0.03000
C830        C  0.43797595  0.05434480  0.98042750    -0.11300
C831        C  0.41268750  0.04304023  0.00273026    -0.01300
C832        C  0.40671130  0.06169414  0.52206001    -0.06500
H833        H  0.47617868  0.12885943  0.51568240     0.06000
H834        H  0.39603450  0.01809158  0.00370194     0.09400
Br835      Br  0.46195425  0.10888850  0.60144911    -0.06200
Br836      Br  0.37778060  0.16446657  0.53186884    -0.03100
Br837      Br  0.49472542  0.10595751  0.95061491    -0.00300
Br838      Br  0.36642213  0.04498866  0.54113590    -0.04700
C839        C  0.40023063  0.25285412  0.76405623    -0.12100
C840        C  0.41055242  0.26066204  0.79849593     0.03400
C841        C  0.41150674  0.28678900  0.81413116    -0.12600
C842        C  0.40225635  0.30554906  0.79640200     0.18300
C843        C  0.39213937  0.29802617  0.76214247    -0.09600
C844        C  0.39123025  0.27198556  0.74632123    -0.02600
H845        H  0.41990538  0.29278742  0.84029355     0.04800
C846        C  0.40434595  0.33334510  0.81398311     0.20200
H847        H  0.38313233  0.26654026  0.72001805     0.10000
C848        C  0.42552907  0.36366548  0.80242564    -0.16000
C849        C  0.43025351  0.39050639  0.82028681     0.03000
C850        C  0.41368556  0.38722435  0.85091312    -0.11300
C851        C  0.39145445  0.35667295  0.86134810    -0.01300
C852        C  0.38682961  0.33001397  0.84337071    -0.06500
H853        H  0.43908201  0.36644713  0.77975604     0.06000
H854        H  0.37821404  0.35322715  0.88444389     0.09400
Br855      Br  0.37845736  0.32202556  0.73623284    -0.06200
Br856      Br  0.42562385  0.23839291  0.82542733    -0.03100
Br857      Br  0.46007802  0.43035040  0.80111354    -0.00300
Br858      Br  0.35651856  0.28946876  0.86032027    -0.04700
C859        C  0.40351880  0.02654719  0.84883708    -0.12100
C860        C  0.41377052  0.03528732  0.81462949     0.03400
C861        C  0.40934007  0.05798453  0.79798680    -0.12600
C862        C  0.39466541  0.07202722  0.81466944     0.18300
C863        C  0.38225840  0.06157310  0.84750325    -0.09600
C864        C  0.38672967  0.03905972  0.86429712    -0.02600
H865        H  0.41821726  0.06543757  0.77228065     0.04800
C866        C  0.39353855  0.09834961  0.79793886     0.20200
H867        H  0.37825055  0.03252821  0.89026857     0.10000
C868        C  0.37435685  0.09235364  0.76934547    -0.16000
C869        C  0.37334113  0.11696920  0.75246623     0.03000
C870        C  0.39182668  0.14817643  0.76428515    -0.11300
C871        C  0.41070773  0.15401376  0.79318975    -0.01300
C872        C  0.41192569  0.12945900  0.80981779    -0.06500
H873        H  0.36013314  0.06844722  0.76018927     0.06000
H874        H  0.42551743  0.17789620  0.80204464     0.09400
Br875      Br  0.35981832  0.07808192  0.87074675    -0.06200
Br876      Br  0.43415098  0.01769422  0.78903964    -0.03100
Br877      Br  0.34546535  0.10640145  0.71435258    -0.00300
Br878      Br  0.44033351  0.13980656  0.84736905    -0.04700
C879        C  0.66904195  0.50560029  0.76673253    -0.12100
C880        C  0.66037334  0.49025484  0.79891997     0.03400
C881        C  0.63482920  0.48774571  0.81582564    -0.12600
C882        C  0.61768644  0.50018152  0.80122363     0.18300
C883        C  0.62643443  0.51577303  0.76951880    -0.09600
C884        C  0.65187874  0.51831550  0.75251689    -0.02600
H885        H  0.62797498  0.47561809  0.84027597     0.04800
C886        C  0.59044035  0.49619214  0.81930270     0.20200
H887        H  0.65825022  0.53031701  0.72799708     0.10000
C888        C  0.59181440  0.52200097  0.83622733    -0.16000
C889        C  0.56701235  0.51847108  0.85565849     0.03000
C890        C  0.54026652  0.48860383  0.85816517    -0.11300
C891        C  0.53882159  0.46304500  0.84025597    -0.01300
C892        C  0.56358120  0.46662998  0.82094954    -0.06500
H893        H  0.61265673  0.54477225  0.83513438     0.06000
H894        H  0.51851867  0.43989126  0.84184168     0.09400
Br895      Br  0.60370123  0.53298502  0.74801405    -0.06200
Br896      Br  0.68071796  0.47030981  0.82029438    -0.03100
Br897      Br  0.57258010  0.55454000  0.88060510    -0.00300
Br898      Br  0.55979473  0.43045867  0.79756753    -0.04700
C899        C  0.77203491  0.51751750  0.76138854    -0.12100
C900        C  0.78343509  0.53463157  0.79231118     0.03400
C901        C  0.80786500  0.53461300  0.80938821    -0.12600
C902        C  0.82136228  0.51801245  0.79609432     0.18300
C903        C  0.81110825  0.50215102  0.76458644    -0.09600
C904        C  0.78667040  0.50212266  0.74733806    -0.02600
H905        H  0.81594466  0.54700490  0.83360200     0.04800
C906        C  0.84367236  0.51478278  0.81754554     0.20200
H907        H  0.77842415  0.48911604  0.72350603     0.10000
C908        C  0.83272347  0.48860675  0.83915459    -0.16000
C909        C  0.85219786  0.48584998  0.86270201     0.03000
C910        C  0.88343097  0.50967234  0.86467521    -0.11300
C911        C  0.89436724  0.53578855  0.84263224    -0.01300
C912        C  0.87470342  0.53842940  0.81909943    -0.06500
H913        H  0.80864255  0.47070413  0.83838584     0.06000
H914        H  0.91815733  0.55413639  0.84366091     0.09400
Br915      Br  0.82932186  0.47962515  0.74490752    -0.06200
Br916      Br  0.76758537  0.55935783  0.81215089    -0.03100
Br917      Br  0.83365532  0.45031667  0.89312840    -0.00300
Br918      Br  0.89092624  0.57461899  0.78974735    -0.04700
C919        C  0.54272317  0.50802453  0.98809813    -0.12100
C920        C  0.56957836  0.53829332  0.50027197     0.03400
C921        C  0.59234182  0.53826178  0.52098514    -0.12600
C922        C  0.58943596  0.51003770  0.53295872     0.18300
C923        C  0.56258807  0.48143110  0.52566150    -0.09600
C924        C  0.54862637  0.48291910  0.98737040    -0.02600
H925        H  0.61289684  0.56035333  0.52700603     0.04800
C926        C  0.61545954  0.51081730  0.55127589     0.20200
H927        H  0.53594129  0.46335459  0.96991736     0.10000
C928        C  0.62239129  0.52241999  0.58488410    -0.16000
C929        C  0.64717147  0.52365344  0.60278319     0.03000
C930        C  0.66529206  0.51255010  0.58692468    -0.11300
C931        C  0.65840000  0.50168157  0.55285462    -0.01300
C932        C  0.63411493  0.50112290  0.53491484    -0.06500
H933        H  0.60850428  0.53078602  0.59717881     0.06000
H934        H  0.67190159  0.49322107  0.53979981     0.09400
Br935      Br  0.55609475  0.44207204  0.54345327    -0.06200
Br936      Br  0.57711954  0.57891629  0.48538551    -0.03100
Br937      Br  0.65546360  0.54253004  0.64765880    -0.00300
Br938      Br  0.65154809  0.53377211  0.98871484    -0.04700
C939        C  0.76069553  0.50655845  0.58256006    -0.12100
C940        C  0.75820810  0.49889182  0.54711868     0.03400
C941        C  0.78237092  0.49804635  0.53067234    -0.12600
C942        C  0.80855542  0.50342450  0.54894696     0.18300
C943        C  0.81093300  0.51011429  0.58412695    -0.09600
C944        C  0.78743845  0.51215535  0.60050676    -0.02600
H945        H  0.78020300  0.49179499  0.50369015     0.04800
C946        C  0.83156833  0.49857763  0.53149480     0.20200
H947        H  0.79005452  0.51761877  0.62768768     0.10000
C948        C  0.85062923  0.52261465  0.01697725    -0.16000
C949        C  0.87191859  0.51921035  0.99721521     0.03000
C950        C  0.87095101  0.48996827  0.99671401    -0.11300
C951        C  0.84781327  0.46340228  0.50950727    -0.01300
C952        C  0.82725132  0.46817757  0.52858180    -0.06500
H953        H  0.85070845  0.54482056  0.01647255     0.06000
H954        H  0.84362761  0.43959332  0.50687061     0.09400
Br955      Br  0.84503332  0.51474939  0.61103852    -0.06200
Br956      Br  0.72208669  0.48616987  0.51964408    -0.03100
Br957      Br  0.89936943  0.55416771  0.96910097    -0.00300
Br958      Br  0.79270660  0.43226434  0.54884476    -0.04700
C959        C  0.66995241  0.16598461  0.58867116    -0.12100
C960        C  0.65671698  0.13300370  0.59084320     0.03400
C961        C  0.63019659  0.11334321  0.57181239    -0.12600
C962        C  0.61640392  0.12605320  0.55080675     0.18300
C963        C  0.62880367  0.15889115  0.54987342    -0.09600
C964        C  0.65564210  0.17859469  0.56832166    -0.02600
H965        H  0.61308059  0.09046686  0.06289055     0.04800
C966        C  0.59046273  0.10486590  0.52826257     0.20200
H967        H  0.66517409  0.20384004  0.56710164     0.10000
C968        C  0.56155001  0.08461809  0.54249793    -0.16000
C969        C  0.53401325  0.07085641  0.01193415     0.03000
C970        C  0.53707446  0.06703484  0.97657582    -0.11300
C971        C  0.56559592  0.08574884  0.96071631    -0.01300
C972        C  0.59469766  0.10398941  0.49264765    -0.06500
H973        H  0.55815397  0.08512673  0.56990490     0.06000
H974        H  0.56837780  0.08252486  0.93369848     0.09400
Br975      Br  0.60953406  0.17770325  0.52413992    -0.06200
Br976      Br  0.67506338  0.11364371  0.61734447    -0.03100
Br977      Br  0.49556935  0.04710782  0.03534777    -0.00300
Br978      Br  0.63419234  0.12893029  0.47169831    -0.04700
C979        C  0.77383997  0.25947043  0.59107807    -0.12100
C980        C  0.80486367  0.27083279  0.60072924     0.03400
C981        C  0.82863805  0.29572306  0.58255464    -0.12600
C982        C  0.82227443  0.30992805  0.55497091     0.18300
C983        C  0.79150499  0.29877328  0.54527889    -0.09600
C984        C  0.76766795  0.27370316  0.56314082    -0.02600
H985        H  0.85228724  0.30403083  0.58992879     0.04800
C986        C  0.84797099  0.33606832  0.53622318     0.20200
H987        H  0.74414700  0.26548444  0.55528782     0.10000
C988        C  0.87116840  0.33042928  0.01033239    -0.16000
C989        C  0.89351656  0.35636402  0.99203007     0.03000
C990        C  0.89606199  0.38625917  0.99605404    -0.11300
C991        C  0.87777111  0.39130377  0.52082494    -0.01300
C992        C  0.85554601  0.36745743  0.54139483    -0.06500
H993        H  0.86870791  0.30745007  0.00632168     0.06000
H994        H  0.88207494  0.41506170  0.52435269     0.09400
Br995      Br  0.79371626  0.29311852  0.98382561    -0.06200
Br996      Br  0.81681409  0.25250628  0.63697502    -0.03100
Br997      Br  0.91958702  0.34897740  0.96226243    -0.00300
Br998      Br  0.83580379  0.37873799  0.57602390    -0.04700
C999        C  0.54483458  0.03253722  0.85062724    -0.12100
C1000       C  0.55038971  0.06129716  0.83609854     0.03400
C1001       C  0.57724375  0.07979144  0.81766875    -0.12600
C1002       C  0.59913171  0.07047927  0.81354504     0.18300
C1003       C  0.59368224  0.04171960  0.82770139    -0.09600
C1004       C  0.56665474  0.02298319  0.84628792    -0.02600
H1005       H  0.58160000  0.10218520  0.80738401     0.04800
C1006       C  0.62817611  0.09267118  0.79634452     0.20200
H1007       H  0.56277777  0.00110934  0.85757267     0.10000
C1008       C  0.65359506  0.11305979  0.81648594    -0.16000
C1009       C  0.67942948  0.13874374  0.80183894     0.03000
C1010       C  0.68005838  0.14443424  0.76594435    -0.11300
C1011       C  0.65493693  0.12260428  0.74579696    -0.01300
C1012       C  0.62920810  0.09719282  0.76067375    -0.06500
H1013       H  0.65276176  0.10972242  0.84409986     0.06000
H1014       H  0.65454844  0.12581117  0.71828567     0.09400
Br1015     Br  0.62250421  0.02739733  0.82226184    -0.06200
Br1016     Br  0.52392984  0.07845322  0.84353405    -0.03100
Br1017     Br  0.71211345  0.16466614  0.83316894    -0.00300
Br1018     Br  0.59529185  0.06997306  0.73150646    -0.04700
C1019       C  0.87119154  0.39089065  0.86382379    -0.12100
C1020       C  0.84353485  0.36639937  0.87806463     0.03400
C1021       C  0.82464012  0.33971575  0.85848100    -0.12600
C1022       C  0.83242240  0.33671198  0.82486003     0.18300
C1023       C  0.85918500  0.36129202  0.81011338    -0.09600
C1024       C  0.87835904  0.38803790  0.82959438    -0.02600
H1025       H  0.80374748  0.32094025  0.86966220     0.04800
C1026       C  0.81156742  0.30803527  0.80543433     0.20200
H1027       H  0.89928973  0.40638871  0.81806022     0.10000
C1028       C  0.79185535  0.30951596  0.78099944    -0.16000
C1029       C  0.77044425  0.28252566  0.76345831     0.03000
C1030       C  0.76854979  0.25337808  0.77031946    -0.11300
C1031       C  0.78805595  0.25179585  0.79513212    -0.01300
C1032       C  0.80963651  0.27896556  0.81258319    -0.06500
H1033       H  0.79282130  0.33170981  0.77598122     0.06000
H1034       H  0.78690418  0.22956182  0.80043431     0.09400
Br1035     Br  0.87098149  0.35875686  0.76398110    -0.06200
Br1036     Br  0.83007899  0.36629872  0.92427392    -0.03100
Br1037     Br  0.74306400  0.28654577  0.73201563    -0.00300
Br1038     Br  0.83654956  0.27564035  0.84527854    -0.04700
C1039       C  0.34992822  0.43646269  0.84794070    -0.12100
C1040       C  0.35269675  0.44263012  0.81225744     0.03400
C1041       C  0.32732172  0.43908096  0.79363094    -0.12600
C1042       C  0.29921982  0.42907167  0.81001710     0.18300
C1043       C  0.29551011  0.41947597  0.84448512    -0.09600
C1044       C  0.32076084  0.42318172  0.86317684    -0.02600
H1045       H  0.32988778  0.44557095  0.76672225     0.04800
C1046       C  0.27500994  0.43183725  0.79207458     0.20200
H1047       H  0.31786162  0.41767671  0.89034431     0.10000
C1048       C  0.25747604  0.40998456  0.76662263    -0.16000
C1049       C  0.23377387  0.41182359  0.74997504     0.03000
C1050       C  0.22727917  0.43563893  0.75932193    -0.11300
C1051       C  0.24506123  0.45756922  0.78465705    -0.01300
C1052       C  0.26916389  0.45616597  0.80059733    -0.06500
H1053       H  0.26209892  0.39135178  0.75994181     0.06000
H1054       H  0.24076080  0.47642365  0.79136108     0.09400
Br1055     Br  0.25689381  0.40331701  0.86765057    -0.06200
Br1056     Br  0.39027349  0.45628153  0.78761656    -0.03100
Br1057     Br  0.21033500  0.38043030  0.71594169    -0.00300
Br1058     Br  0.29430594  0.48875722  0.83272627    -0.04700
C1059       C  0.03677363  0.47975408  0.86232560    -0.12100
C1060       C  0.03182642  0.47195139  0.82696065     0.03400
C1061       C  0.05407795  0.46933384  0.80827678    -0.12600
C1062       C  0.08146266  0.47488713  0.82392660     0.18300
C1063       C  0.08756965  0.48511851  0.85819289    -0.09600
C1064       C  0.06528398  0.48730287  0.87713113    -0.02600
H1065       H  0.04976619  0.46232892  0.78151488     0.04800
C1066       C  0.10287426  0.46886413  0.80431384     0.20200
H1067       H  0.07009339  0.49408475  0.90390460     0.10000
C1068       C  0.12060747  0.48992868  0.77842788    -0.16000
C1069       C  0.14046996  0.48430600  0.75868495     0.03000
C1070       C  0.14245264  0.45707619  0.76463809    -0.11300
C1071       C  0.12499324  0.43624174  0.79087904    -0.01300
C1072       C  0.10509858  0.44182582  0.81056000    -0.06500
H1073       H  0.11913284  0.51090395  0.77378521     0.06000
H1074       H  0.12647592  0.41529126  0.79568488     0.09400
Br1075     Br  0.12587327  0.49602765  0.88021997    -0.06200
Br1076     Br  0.99586784  0.46505022  0.80206588    -0.03100
Br1077     Br  0.16578394  0.51544319  0.72554336    -0.00300
Br1078     Br  0.08074495  0.41147722  0.84491979    -0.04700
C1079       C  0.35847565  0.47991767  0.97806421    -0.12100
C1080       C  0.33617851  0.48704105  0.96533892     0.03400
C1081       C  0.31183413  0.48264754  0.98637783    -0.12600
C1082       C  0.30807850  0.46550541  0.52418068     0.18300
C1083       C  0.33237913  0.46274016  0.53842121    -0.09600
C1084       C  0.35633548  0.46619925  0.51741190    -0.02600
H1085       H  0.29455029  0.48751031  0.97620874     0.04800
C1086       C  0.28098870  0.45946850  0.54458118     0.20200
H1087       H  0.37461200  0.46358411  0.52882219     0.10000
C1088       C  0.25255433  0.43276679  0.53691624    -0.16000
C1089       C  0.22604060  0.42651243  0.55474399     0.03000
C1090       C  0.22784690  0.44706952  0.58103343    -0.11300
C1091       C  0.25634957  0.47372194  0.58878553    -0.01300
C1092       C  0.28272139  0.48033370  0.57039214    -0.06500
H1093       H  0.25102213  0.41669684  0.51693778     0.06000
H1094       H  0.25793247  0.48994312  0.60860241     0.09400
Br1095     Br  0.33277056  0.45192723  0.58576544    -0.06200
Br1096     Br  0.33568870  0.50071515  0.91919082    -0.03100
Br1097     Br  0.18842318  0.38884713  0.54321700    -0.00300
Br1098     Br  0.32004001  0.51899211  0.57992386    -0.04700
C1099       C  0.12168355  0.42614776  0.58481810    -0.12100
C1100       C  0.09203359  0.40268221  0.59511233     0.03400
C1101       C  0.06618157  0.39962688  0.57789275    -0.12600
C1102       C  0.06956561  0.41988834  0.55077619     0.18300
C1103       C  0.09913255  0.44375045  0.54110957    -0.09600
C1104       C  0.12489002  0.44635504  0.55772724    -0.02600
H1105       H  0.04343598  0.38136971  0.58552363     0.04800
C1106       C  0.04236364  0.41661744  0.53274565     0.20200
H1107       H  0.14752948  0.46490473  0.55015335     0.10000
C1108       C  0.02513168  0.42843238  0.54810661    -0.16000
C1109       C  0.00432376  0.43306530  0.52859662     0.03000
C1110       C  0.00486908  0.43116371  0.99238568    -0.11300
C1111       C  0.02141210  0.41884225  0.97603447    -0.01300
C1112       C  0.04156186  0.41268744  0.99461822    -0.06500
H1113       H  0.02908989  0.43564436  0.57480306     0.06000
H1114       H  0.02033371  0.41596099  0.94838983     0.09400
Br1115     Br  0.11010904  0.47813899  0.00865864    -0.06200
Br1116     Br  0.08560298  0.37344058  0.63133449    -0.03100
Br1117     Br  0.98098993  0.44844617  0.55204798    -0.00300
Br1118     Br  0.06472006  0.39761311  0.97023229    -0.04700
C1119       C  0.11878647  0.70834633  0.57440189    -0.12100
C1120       C  0.12174268  0.69931682  0.54069557     0.03400
C1121       C  0.09618042  0.67498887  0.52404584    -0.12600
C1122       C  0.06748639  0.65935993  0.54006243     0.18300
C1123       C  0.06402431  0.66927330  0.57270754    -0.09600
C1124       C  0.08950939  0.69348539  0.58960818    -0.02600
H1125       H  0.09283599  0.66471889  0.00964633     0.04800
C1126       C  0.04289771  0.63015776  0.52429891     0.20200
H1127       H  0.08643856  0.70038044  0.61501375     0.10000
C1128       C  0.03537160  0.60140323  0.53969765    -0.16000
C1129       C  0.01555769  0.57283335  0.52352903     0.03000
C1130       C  0.99879401  0.57431890  0.99918857    -0.11300
C1131       C  0.00296627  0.60333172  0.98729758    -0.01300
C1132       C  0.02918384  0.63026011  0.49281466    -0.06500
H1133       H  0.04589223  0.60123712  0.56402133     0.06000
H1134       H  0.99282421  0.60459859  0.96316137     0.09400
Br1135     Br  0.02492425  0.65014236  0.59516456    -0.06200
Br1136     Br  0.15993222  0.71644106  0.51650455    -0.03100
Br1137     Br  0.00780992  0.53548810  0.54778666    -0.00300
Br1138     Br  0.03753702  0.66873967  0.47083020    -0.04700
C1139       C  0.34783884  0.91353958  0.98792185    -0.12100
C1140       C  0.35140688  0.89561144  0.01412421     0.03400
C1141       C  0.33011666  0.87931009  0.53275813    -0.12600
C1142       C  0.30005153  0.87050053  0.52269908     0.18300
C1143       C  0.29530083  0.88429759  0.49331365    -0.09600
C1144       C  0.32042862  0.90592232  0.47399802    -0.02600
H1145       H  0.33393547  0.86908209  0.55562273     0.04800
C1146       C  0.27388243  0.84638153  0.54266929     0.20200
H1147       H  0.31632441  0.91581113  0.45102360     0.10000
C1148       C  0.26715742  0.85410442  0.57489360    -0.16000
C1149       C  0.24182243  0.83194233  0.59385287     0.03000
C1150       C  0.22279709  0.80130309  0.58048584    -0.11300
C1151       C  0.23028860  0.79365228  0.54856065    -0.01300
C1152       C  0.25545668  0.81575153  0.52972958    -0.06500
H1153       H  0.28134485  0.87766954  0.58500995     0.06000
H1154       H  0.21671451  0.77019793  0.53822794     0.09400
Br1155     Br  0.25492235  0.87424505  0.47849829    -0.06200
Br1156     Br  0.39018879  0.89971324  0.02607068    -0.03100
Br1157     Br  0.23364649  0.84579215  0.63654445    -0.00300
Br1158     Br  0.26766659  0.80130521  0.99907504    -0.04700
C1159       C  0.12707502  0.68709412  0.75465359    -0.12100
C1160       C  0.13415344  0.67794881  0.78646868     0.03400
C1161       C  0.11229145  0.65037070  0.80269152    -0.12600
C1162       C  0.08330633  0.63101126  0.78801750     0.18300
C1163       C  0.07643082  0.63927876  0.75586421    -0.09600
C1164       C  0.09823423  0.66699677  0.73943569    -0.02600
H1165       H  0.11775038  0.64428526  0.82747148     0.04800
C1166       C  0.05992772  0.60452082  0.80882467     0.20200
H1167       H  0.09229398  0.67314044  0.71499132     0.10000
C1168       C  0.03488285  0.60653363  0.82131055    -0.16000
C1169       C  0.01513002  0.58522797  0.84582027     0.03000
C1170       C  0.02025256  0.56132567  0.85842033    -0.11300
C1171       C  0.04499799  0.55894250  0.84557396    -0.01300
C1172       C  0.06455527  0.58002521  0.82066540    -0.06500
H1173       H  0.03155680  0.62572694  0.81318686     0.06000
H1174       H  0.04928547  0.54083156  0.85506321     0.09400
Br1175     Br  0.03770380  0.61334316  0.73335760    -0.06200
Br1176     Br  0.17326509  0.70077228  0.80943965    -0.03100
Br1177     Br  0.98374693  0.59218283  0.86403426    -0.00300
Br1178     Br  0.09711169  0.57431890  0.80349961    -0.04700
C1179       C  0.34838102  0.89028963  0.86257240    -0.12100
C1180       C  0.33516734  0.85724576  0.85834867     0.03400
C1181       C  0.30893560  0.84056527  0.83798971    -0.12600
C1182       C  0.29511829  0.85574602  0.82178823     0.11400
C1183       C  0.30760878  0.88828424  0.82620177    -0.09600
C1184       C  0.33407655  0.90531257  0.84633867    -0.02600
H1185       H  0.29919338  0.81540731  0.83462003     0.04800
C1186       C  0.26830553  0.83692677  0.79945488     0.20200
H1187       H  0.34336859  0.93042056  0.84935650     0.10000
C1188       C  0.23863049  0.82387395  0.81295769    -0.16000
C1189       C  0.21301703  0.80242950  0.79370823     0.03000
C1190       C  0.21708532  0.79387276  0.76034187    -0.11300
C1191       C  0.24679239  0.80814620  0.74647333    -0.01300
C1192       C  0.27229419  0.82926598  0.76585219    -0.06500
H1193       H  0.23549051  0.82977819  0.83885561     0.06000
H1194       H  0.25039088  0.80181602  0.72097611     0.09400
Br1195     Br  0.28934627  0.91024869  0.80494035    -0.06200
Br1196     Br  0.35060345  0.83239681  0.87940079    -0.03100
Br1197     Br  0.17321007  0.78628403  0.81400535    -0.00300
Br1198     Br  0.31235854  0.84599748  0.74610779    -0.04700
C1199       C  0.51867421  0.71372323  0.76335873    -0.12100
C1200       C  0.52494924  0.69231620  0.74569196     0.03400
C1201       C  0.52346380  0.66672551  0.76317681    -0.12600
C1202       C  0.51581552  0.66175815  0.79801613     0.18300
C1203       C  0.51177959  0.68416373  0.81623637    -0.09600
C1204       C  0.51333557  0.70988762  0.79891803    -0.02600
H1205       H  0.52737012  0.64996870  0.74924326     0.04800
C1206       C  0.51008249  0.63210068  0.81433571     0.20200
H1207       H  0.50869211  0.72599171  0.81311005     0.10000
C1208       C  0.52890443  0.63302928  0.84147057    -0.16000
C1209       C  0.52179754  0.60587540  0.86021761     0.03000
C1210       C  0.49559792  0.57673071  0.85123721    -0.11300
C1211       C  0.47813400  0.57572118  0.82235190    -0.01300
C1212       C  0.48491673  0.60300150  0.80424889    -0.06500
H1213       H  0.54859504  0.65531955  0.84896300     0.06000
H1214       H  0.45794807  0.55387870  0.81478348     0.09400
Br1215     Br  0.50156613  0.67940032  0.86415990    -0.06200
Br1216     Br  0.53584430  0.69604486  0.69789818    -0.03100
Br1217     Br  0.54836593  0.61132867  0.89838329    -0.00300
Br1218     Br  0.45734407  0.59953481  0.76793424    -0.04700
C1219       C  0.47957806  0.91739709  0.85320037    -0.12100
C1220       C  0.45901703  0.89515106  0.82896738     0.03400
C1221       C  0.46772066  0.87638789  0.81064564    -0.12600
C1222       C  0.49669528  0.87945129  0.81543153     0.18300
C1223       C  0.51797988  0.90296001  0.83752258    -0.09600
C1224       C  0.50935027  0.92159059  0.85620658    -0.02600
H1225       H  0.45137254  0.85849702  0.79331920     0.04800
C1226       C  0.50314017  0.85623071  0.79907949     0.20200
H1227       H  0.52580679  0.93882444  0.87398035     0.10000
C1228       C  0.51829825  0.86310897  0.76743438    -0.16000
C1229       C  0.52200357  0.84027878  0.75001200     0.03000
C1230       C  0.51037222  0.80993817  0.76433883    -0.11300
C1231       C  0.49640806  0.80366899  0.79676491    -0.01300
C1232       C  0.49257549  0.82642707  0.81400236    -0.06500
H1233       H  0.52681211  0.88614582  0.75599994     0.06000
H1234       H  0.48735563  0.78055176  0.80819367     0.09400
Br1235     Br  0.55849628  0.90932995  0.84420060    -0.06200
Br1236     Br  0.41809735  0.88724038  0.82057892    -0.03100
Br1237     Br  0.54398765  0.85218629  0.70739897    -0.00300
Br1238     Br  0.47193392  0.81556472  0.85745970    -0.04700
C1239       C  0.45624475  0.56321495  0.98567607    -0.12100
C1240       C  0.44087099  0.58046836  0.98064786     0.03400
C1241       C  0.44667077  0.60513534  0.00283668    -0.12600
C1242       C  0.46376824  0.60771177  0.53469384     0.18300
C1243       C  0.48506433  0.59719526  0.53404202    -0.09600
C1244       C  0.48003319  0.57244157  0.51222527    -0.02600
H1245       H  0.43532438  0.61864221  0.99833970     0.04800
C1246       C  0.46935023  0.63539927  0.55490001     0.20200
H1247       H  0.49706676  0.56512950  0.51140435     0.10000
C1248       C  0.46110874  0.63195866  0.58962748    -0.16000
C1249       C  0.46370510  0.65747566  0.60845126     0.03000
C1250       C  0.47483060  0.68703561  0.59227314    -0.11300
C1251       C  0.48338012  0.69027422  0.55755282    -0.01300
C1252       C  0.48073078  0.66481293  0.53890874    -0.06500
H1253       H  0.45182926  0.60913138  0.60182164     0.06000
H1254       H  0.49213130  0.71277012  0.54473793     0.09400
Br1255     Br  0.52233860  0.61756144  0.56049899    -0.06200
Br1256     Br  0.41164844  0.57230014  0.94446257    -0.03100
Br1257     Br  0.44917573  0.64956319  0.65495827    -0.00300
Br1258     Br  0.50453957  0.67858400  0.98939362    -0.04700
C1259       C  0.45285277  0.89877059  0.99273126    -0.12100
C1260       C  0.47485122  0.90451517  0.51608179     0.03400
C1261       C  0.47627317  0.88116095  0.53510287    -0.12600
C1262       C  0.45574780  0.84930299  0.52868199     0.18300
C1263       C  0.43564522  0.84399567  0.00719572    -0.09600
C1264       C  0.43311937  0.86630015  0.98732449    -0.02600
H1265       H  0.49398493  0.88784904  0.55453120     0.04800
C1266       C  0.45920050  0.82567825  0.54831975     0.20200
H1267       H  0.41576042  0.85811963  0.96730992     0.10000
C1268       C  0.45008447  0.82041395  0.58274136    -0.16000
C1269       C  0.45425312  0.79917110  0.60270190     0.03000
C1270       C  0.46794476  0.78291836  0.58804449    -0.11300
C1271       C  0.47676454  0.78810294  0.55337319    -0.01300
C1272       C  0.47275622  0.80950304  0.53359325    -0.06500
H1273       H  0.43963728  0.83290710  0.59408709     0.06000
H1274       H  0.48756347  0.77605198  0.54180029     0.09400
Br1275     Br  0.40734024  0.80023102  0.99862274    -0.06200
Br1276     Br  0.50597426  0.94721765  0.52602010    -0.03100
Br1277     Br  0.43930607  0.79239757  0.64903042    -0.00300
Br1278     Br  0.48738121  0.81696000  0.48713824    -0.04700
loop_ 
_geom_bond_atom_site_label_1 
_geom_bond_atom_site_label_2 
_geom_bond_distance 
_geom_bond_site_symmetry_2 
_ccdc_geom_bond_type 
C1            N2   1.358       .  A
C1            N6   1.353       .  A
C1          C611   1.475       .  S
N2            C3   1.360       .  A
C3            N4   1.359       .  A
C3          C631   1.482       .  S
N4            C5   1.357       .  A
C5            N6   1.354       .  A
C5            C9   1.462       .  S
C7            N8   1.354       .  A
C7           N12   1.363       .  A
C7          C560   1.484       .  S
N8            C9   1.354       .  A
C9           N10   1.355       .  A
N10          C11   1.358       .  A
C11          N12   1.361       .  A
C11         C591   1.475       .  S
C13          N14   1.355       .  A
C13          N18   1.360       .  A
C13         C551   1.476       .  S
N14          C15   1.353       .  A
C15          N16   1.359       .  A
C15          C21   1.466       .  S
N16          C17   1.361       .  A
C17          N18   1.361       .  A
C17         C520   1.487       .  S
C19          N20   1.357       .  A
C19          N24   1.359       .  A
C19         C511   1.479       .  S
N20          C21   1.358       .  A
C21          N22   1.356       .  A
N22          C23   1.359       .  A
C23          N24   1.359       .  A
C23         C480   1.483       .  S
C25          N26   1.356       .  A
C25          N30   1.356       .  A
C25         C460   1.468       .  S
N26          C27   1.355       .  A
C27          N28   1.357       .  A
C27         C451   1.474       .  S
N28          C29   1.358       .  A
C29          N30   1.357       .  A
C29          C33   1.461       .  S
C31          N32   1.357       .  A
C31          N36   1.359       .  A
C31         C431   1.475       .  S
N32          C33   1.356       .  A
C33          N34   1.355       .  A
N34          C35   1.355       .  A
C35          N36   1.360       .  A
C35         C411   1.473       .  S
C37          N38   1.358       .  A
C37          N42   1.353       .  A
C37         C391   1.478       .  S
N38          C39   1.360       .  A
C39          N40   1.361       .  A
C39         C371   1.479       .  S
N40          C41   1.359       .  A
C41          N42   1.354       .  A
C41          C45   1.463       .  S
C43          N44   1.355       .  A
C43          N48   1.362       .  A
C43         C340   1.495       .  S
N44          C45   1.356       .  A
C45          N46   1.355       .  A
N46          C47   1.358       .  A
C47          N48   1.360       .  A
C47         C320   1.472       .  S
C49          N50   1.361       .  A
C49          N54   1.359       .  A
C49         C291   1.489       .  S
N50          C51   1.358       .  A
C51          N52   1.355       .  A
C51         C300   1.485       .  S
N52          C53   1.352       .  A
C53          N54   1.359       .  A
C53          C57   1.461       .  S
C55          N56   1.356       .  A
C55          N60   1.357       .  A
C55         C240   1.476       .  S
N56          C57   1.351       .  A
C57          N58   1.358       .  A
N58          C59   1.358       .  A
C59          N60   1.357       .  A
C59         C260   1.475       .  S
C61          N62   1.359       .  A
C61          N66   1.356       .  A
C61         C231   1.468       .  S
N62          C63   1.359       .  A
C63          N64   1.357       .  A
C63         C200   1.483       .  S
N64          C65   1.357       .  A
C65          N66   1.354       .  A
C65          C71   1.462       .  S
C67          N68   1.358       .  A
C67          N72   1.359       .  A
C67         C180   1.474       .  S
N68          C69   1.358       .  A
C69          N70   1.353       .  A
C69         C160   1.468       .  S
N70          C71   1.354       .  A
C71          N72   1.359       .  A
O73          C81   1.260       .  A
O73         Co93   1.978       .  S
O74          C82   1.266       .  A
O74         Co94   1.965       .  S
O75          C83   1.294       .  A
O75         Co95   2.111       .  S
O76          C84   1.273       .  A
O76         Co96   2.013       .  S
O77          C83   1.264       .  A
O77         Co94   1.877       .  S
O78          C84   1.261       .  A
O78         Co93   1.960       .  S
O79          C82   1.280       .  A
O79         Co96   2.026       .  S
O80          C81   1.260       .  A
O80         Co95   1.996       .  S
C81         C571   1.484       .  S
C82         C211   1.489       .  S
C83         C251   1.470       .  S
C84         C400   1.476       .  S
O85          C98   1.273       .  A
O85         Co93   2.018       .  S
O86          C99   1.297       .  A
O86         Co94   2.112       .  S
O87         C100   1.269       .  A
O87         Co95   1.963       .  S
O88         C101   1.259       .  A
O88         Co96   1.980       .  S
O89         C101   1.260       .  A
O89         Co94   1.985       .  S
O90         C100   1.278       .  A
O90         Co93   2.024       .  S
O91          C98   1.265       .  A
O91         Co96   1.964       .  S
O92          C99   1.263       .  A
O92         Co95   1.881       .  S
Co93         O97   2.005       .  S
Co94         O97   1.977       .  S
Co95         O97   1.988       .  S
Co96         O97   2.022       .  S
C98         C440   1.485       .  S
C99         C280   1.484       .  S
C100        C600   1.478       .  S
C101        C171   1.462       .  S
O102        C110   1.257       .  A
O102       Co122   1.978       .  S
O103        C111   1.266       .  A
O103       Co123   1.965       .  S
O104        C112   1.297       .  A
O104       Co124   2.119       .  S
O105        C113   1.272       .  A
O105       Co125   2.014       .  S
O106        C112   1.261       .  A
O106       Co123   1.861       .  S
O107        C113   1.261       .  A
O107       Co122   1.963       .  S
O108        C111   1.278       .  A
O108       Co125   2.036       .  S
O109        C110   1.261       .  A
O109       Co124   1.997       .  S
C110        C491   1.487   1_655  S
C111        C351   1.491       .  S
C112        C311   1.472       .  S
C113        C471   1.478   1_655  S
O114        C127   1.275       .  A
O114       Co122   2.019   1_455  S
O115        C128   1.297       .  A
O115       Co123   2.113       .  S
O116        C129   1.271   1_655  A
O116       Co124   1.972       .  S
O117        C130   1.260       .  A
O117       Co125   1.979       .  S
O118        C130   1.260       .  A
O118       Co123   1.997       .  S
O119        C129   1.279       .  A
O119       Co122   2.028   1_455  S
O120        C127   1.261   1_655  A
O120       Co125   1.961       .  S
O121        C128   1.263       .  A
O121       Co124   1.883       .  S
Co122       O126   2.017       .  S
Co123       O126   1.977       .  S
Co124       O126   2.000       .  S
Co125       O126   2.033       .  S
C127        C420   1.487       .  S
C128        C271   1.472       .  S
C129        C531   1.474       .  S
C130        C380   1.487       .  S
O131        C139   1.261       .  A
O131       Co151   1.998       .  S
O132        C140   1.278       .  A
O132       Co152   2.026       .  S
O133        C141   1.259       .  A
O133       Co153   1.959   1_545  S
O134        C142   1.265       .  A
O134       Co154   1.888       .  S
O135        C141   1.275       .  A
O135       Co152   2.028       .  S
O136        C142   1.297       .  A
O136       Co151   2.114       .  S
O137        C140   1.271       .  A
O137       Co154   1.972   1_545  S
O138        C139   1.256       .  A
O138       Co153   1.970       .  S
C139        C620   1.478       .  S
C140        C191   1.482       .  S
C141        C331   1.477       .  S
C142        C500   1.477       .  S
O143        C156   1.262       .  A
O143       Co151   1.878       .  S
O144        C157   1.261       .  A
O144       Co152   1.960       .  S
O145        C158   1.278       .  A
O145       Co153   2.018       .  S
O146        C159   1.262       .  A
O146       Co154   1.997   1_545  S
O147        C159   1.258       .  A
O147       Co152   1.977       .  S
O148        C158   1.270       .  A
O148       Co151   1.978       .  S
O149        C156   1.298       .  A
O149       Co154   2.114       .  S
O150        C157   1.275       .  A
O150       Co153   2.027   1_545  S
Co151       O155   1.995       .  S
Co152       O155   2.021   1_545  S
Co153       O155   2.023       .  S
Co154       O155   2.003       .  S
C156        C540   1.484       .  S
C157        C360   1.482       .  S
C158        C580   1.494       .  S
C159        C220   1.480       .  S
C160        C161   1.412       .  A
C160        C165   1.402       .  A
C161        C162   1.397       .  A
C161       Br177   1.921       .  S
C162        C163   1.400       .  A
C162        H166   1.083       .  S
C163        C167   1.469       .  S
C163        C164   1.407       .  A
C164        C165   1.394       .  A
C164       Br176   1.921       .  S
C165        H168   1.083       .  S
C167        C173   1.407   1_554  A
C167        C808   1.404       .  A
C169        C170   1.398       .  A
C169        C806   1.402       .  A
C169        H174   1.084       .  S
C170        C171   1.408       .  A
C170       Br178   1.919       .  S
C171        C811   1.402       .  A
C172        C173   1.389       .  A
C172        C810   1.400       .  A
C172        H175   1.084       .  S
C173       Br179   1.921       .  S
C180        C181   1.410       .  A
C180        C185   1.402       .  A
C181        C182   1.401       .  A
C181       Br197   1.920       .  S
C182        C183   1.403       .  A
C182        H825   1.083       .  S
C183        C187   1.479       .  S
C183        C184   1.408       .  A
C184        C185   1.398       .  A
C184       Br196   1.919       .  S
C185        H188   1.083       .  S
H186        C821   1.083       .  S
C187        C189   1.400       .  A
C187        C193   1.406       .  A
C189        C829   1.398   1_554  A
C189        H194   1.084   1_554  S
C190        C191   1.414       .  A
C190        C828   1.398       .  A
C190       Br198   1.916       .  S
C191        C192   1.407       .  A
C192        C832   1.400       .  A
C192        H195   1.084       .  S
C193        C831   1.401       .  A
C193       Br199   1.918       .  S
C200        C201   1.414       .  A
C200        C205   1.408       .  A
C201        C202   1.399       .  A
C201       Br217   1.921       .  S
C202        C203   1.402       .  A
C202        H206   1.083       .  S
C203        C207   1.475       .  S
C203        C204   1.403       .  A
C204        C205   1.398       .  A
C204       Br216   1.918       .  S
C205        H208   1.083       .  S
C207        C209   1.399       .  A
C207        C213   1.403       .  A
C209        C210   1.398       .  A
C209        H214   1.084       .  S
C210        C211   1.420       .  A
C210       Br218   1.922       .  S
C211        C212   1.410       .  A
C212        C213   1.397       .  A
C212        H215   1.083       .  S
C213       Br219   1.918       .  S
C220        C221   1.414       .  A
C220        C225   1.407       .  A
C221        C222   1.398       .  A
C221       Br237   1.920       .  S
C222        C223   1.400       .  A
C222        H226   1.083       .  S
C223        C227   1.473       .  S
C223        C224   1.405       .  A
C224        C225   1.396       .  A
C224       Br236   1.920       .  S
C225        H228   1.083       .  S
C227        C229   1.401       .  A
C227        C233   1.408       .  A
C229        C230   1.398       .  A
C229        H234   1.084       .  S
C230        C231   1.410       .  A
C230       Br238   1.920       .  S
C231        C232   1.401       .  A
C232        C233   1.396       .  A
C232        H235   1.084       .  S
C233       Br239   1.920       .  S
C240        C241   1.416       .  A
C240        C245   1.409       .  A
C241        C242   1.394       .  A
C241       Br257   1.922       .  S
C242        C243   1.398       .  A
C242        H246   1.084       .  S
C243        C247   1.462       .  S
C243        C244   1.400       .  A
C244        C245   1.393       .  A
C244       Br256   1.918       .  S
C245        H248   1.083       .  S
C247        C249   1.397       .  A
C247        C253   1.403       .  A
C249        C250   1.395       .  A
C249        H254   1.084       .  S
C250        C251   1.414       .  A
C250       Br258   1.916       .  S
C251        C252   1.405       .  A
C252        C253   1.392       .  A
C252        H255   1.083       .  S
C253       Br259   1.919       .  S
C260        C261   1.412       .  A
C260        C265   1.405       .  A
C261        C262   1.400       .  A
C261       Br277   1.920       .  S
C262        C263   1.401       .  A
C262        H266   1.083       .  S
C263        C267   1.471       .  S
C263        C264   1.404       .  A
C264        C265   1.396       .  A
C264       Br276   1.919       .  S
C265        H268   1.083       .  S
C267        C269   1.398       .  A
C267        C273   1.405       .  A
C269        C270   1.394       .  A
C269        H274   1.083       .  S
C270        C271   1.411       .  A
C270       Br278   1.915       .  S
C271        C272   1.406       .  A
C272        C273   1.400       .  A
C272        H275   1.083       .  S
C273       Br279   1.917       .  S
C280        C285   1.408       .  A
C280        C920   1.420       .  A
C281        C282   1.402       .  A
C281        C919   1.413   1_554  A
C281       Br297   1.918       .  S
C282        C283   1.402       .  A
C282        H286   1.083       .  S
C283        C287   1.477       .  S
C283        C284   1.406       .  A
C284        C924   1.397   1_554  A
C284       Br296   1.919       .  S
C285        C923   1.395       .  A
C285        H288   1.083       .  S
C287        C289   1.401       .  A
C287        C293   1.404       .  A
C289        C290   1.403       .  A
C289        H294   1.084       .  S
C290        C291   1.419       .  A
C290       Br298   1.922       .  S
C291        C292   1.408       .  A
C292        C293   1.397       .  A
C292        H295   1.083       .  S
C293       Br938   1.919   1_554  S
Br299       C932   1.921       .  S
C300        C301   1.418       .  A
C300        C305   1.411       .  A
C301        C302   1.398       .  A
C301       Br317   1.923       .  S
C302        C303   1.399       .  A
C302        H306   1.084       .  S
C303        C307   1.468       .  S
C303        C304   1.400       .  A
C304        C305   1.394       .  A
C304       Br316   1.919       .  S
C305        H308   1.083       .  S
C307        C313   1.403       .  A
C307        C948   1.400       .  A
C309        C310   1.400       .  A
C309        C946   1.401       .  A
C309        H314   1.084       .  S
C310        C311   1.413       .  A
C310       Br318   1.921       .  S
C311        C951   1.406       .  A
C312        C313   1.392       .  A
C312        C950   1.405   1_554  A
C312        H315   1.088       .  S
C313       Br319   1.919       .  S
C320        C321   1.409       .  A
C320        C325   1.404       .  A
C321        C322   1.397       .  A
C321       Br337   1.920       .  S
C322        C323   1.402       .  A
C322        H965   1.083       .  S
C323        C327   1.476       .  S
C323        C324   1.408       .  A
C324        C325   1.399       .  A
C324       Br336   1.919       .  S
C325        H328   1.083       .  S
H326        C961   1.083       .  S
C327        C329   1.403       .  A
C327        C333   1.408   1_554  A
C329        C969   1.399       .  A
C329        H334   1.083       .  S
C330        C331   1.413       .  A
C330        C968   1.401       .  A
C330       Br338   1.921       .  S
C331        C332   1.403       .  A
C332        C972   1.396       .  A
C332        H335   1.084       .  S
C333        C971   1.396       .  A
C333       Br339   1.921       .  S
C340        C341   1.424       .  A
C340        C345   1.410       .  A
C341        C342   1.400       .  A
C341       Br357   1.924       .  S
C342        C343   1.398       .  A
C342        H346   1.084       .  S
C343        C347   1.476       .  S
C343        C344   1.404       .  A
C344        C345   1.398       .  A
C344       Br995   1.918   1_554  S
C345        H348   1.083       .  S
C347        C353   1.405       .  A
C347        C988   1.400       .  A
C349        C350   1.403       .  A
C349        C986   1.402       .  A
C349        H354   1.084       .  S
C350        C351   1.417       .  A
C350       Br358   1.921       .  S
C351        C991   1.410       .  A
C352        C353   1.397       .  A
C352        C990   1.408   1_554  A
C352        H355   1.084       .  S
C353       Br359   1.919       .  S
Br356       C983   1.919       .  S
C360        C361   1.415       .  A
C360        C365   1.405       .  A
C361        C362   1.400       .  A
C361       Br377   1.922       .  S
C362        C363   1.401       .  A
C362        H366   1.084       .  S
C363        C367   1.479       .  S
C363        C364   1.408       .  A
C364        C365   1.398       .  A
C364       Br376   1.919       .  S
C365        H368   1.083       .  S
C367        C369   1.402       .  A
C367        C373   1.407       .  A
C369        C370   1.396       .  A
C369        H374   1.084       .  S
C370        C371   1.411       .  A
C370       Br378   1.921       .  S
C371        C372   1.407       .  A
C372        C373   1.402       .  A
C372        H375   1.084       .  S
C373       Br379   1.918       .  S
C380        C381   1.420       .  A
C380        C385   1.409       .  A
C381        C382   1.397       .  A
C381       Br397   1.924       .  S
C382        C383   1.400       .  A
C382        H386   1.084       .  S
C383        C387   1.479       .  S
C383        C384   1.407       .  A
C384        C385   1.399       .  A
C384       Br396   1.920       .  S
C385        H388   1.083       .  S
C387        C389   1.401       .  A
C387        C393   1.409       .  A
C389        C390   1.398       .  A
C389        H394   1.083       .  S
C390        C391   1.416       .  A
C390       Br398   1.922       .  S
C391        C392   1.403       .  A
C392        C393   1.398       .  A
C392        H395   1.083       .  S
C393       Br399   1.920       .  S
C400        C401   1.414       .  A
C400        C405   1.405       .  A
C401        C402   1.398       .  A
C401       Br417   1.922       .  S
C402        C403   1.400       .  A
C402        H406   1.083       .  S
C403        C407   1.470       .  S
C403        C404   1.405       .  A
C404        C405   1.393       .  A
C404       Br416   1.919       .  S
C405        H408   1.083       .  S
C407        C409   1.399       .  A
C407        C413   1.408       .  A
C409        C410   1.399       .  A
C409        H414   1.084       .  S
C410        C411   1.414       .  A
C410       Br418   1.920       .  S
C411        C412   1.402       .  A
C412        C413   1.394       .  A
C412        H415   1.084       .  S
C413       Br419   1.918       .  S
C420        C421   1.421       .  A
C420        C425   1.409       .  A
C421        C422   1.398       .  A
C421       Br437   1.924   1_455  S
C422        C423   1.397       .  A
C422        H426   1.084       .  S
C423        C427   1.472       .  S
C423        C424   1.403       .  A
C424        C425   1.397       .  A
C424       Br436   1.918       .  S
C425        H428   1.083       .  S
C427        C429   1.399       .  A
C427        C433   1.407       .  A
C429        C430   1.398       .  A
C429        H434   1.084       .  S
C430        C431   1.413       .  A
C430       Br438   1.920       .  S
C431        C432   1.404       .  A
C432        C433   1.398       .  A
C432        H435   1.084       .  S
C433       Br439   1.920       .  S
C440        C441   1.418       .  A
C440       C1084   1.408       .  A
C441        C442   1.397       .  A
C441       Br457   1.921       .  S
C442       C1082   1.399       .  A
C442        H446   1.084       .  S
C443        C447   1.478       .  S
C443        C444   1.405       .  A
C443       C1081   1.401   1_554  A
C444        C445   1.395       .  A
C444       Br456   1.921       .  S
C445       C1079   1.410   1_554  A
C445        H448   1.083       .  S
C447        C449   1.402       .  A
C447        C453   1.408       .  A
C449        C450   1.398       .  A
C449        H454   1.084       .  S
C450        C451   1.411       .  A
C450       Br458   1.921       .  S
C451        C452   1.404       .  A
C452        C453   1.397       .  A
C452        H455   1.084       .  S
C453       Br459   1.919       .  S
C460        C461   1.410       .  A
C460        C465   1.401       .  A
C461        C462   1.400       .  A
C461       Br477   1.919       .  S
C462        C463   1.401       .  A
C462        H466   1.084       .  S
C463        C467   1.470       .  S
C463        C464   1.408       .  A
C464        C465   1.391       .  A
C464      Br1115   1.922       .  S
C465        H468   1.084       .  S
C467        C469   1.401       .  A
C467       C1112   1.406   1_554  A
C469        C470   1.398       .  A
C469        H474   1.083       .  S
C470       C1110   1.411   1_554  A
C470       Br478   1.919   1_455  S
C471        C472   1.406       .  A
C471       C1109   1.415       .  A
C472        C473   1.395       .  A
C472        H475   1.083       .  S
C473       C1106   1.405       .  A
C473       Br479   1.919       .  S
Br476      C1103   1.921       .  S
C480        C481   1.416       .  A
C480        C485   1.409       .  A
C481        C482   1.398       .  A
C481       Br497   1.921       .  S
C482        C483   1.401       .  A
C482       H1125   1.083       .  S
C483        C487   1.475       .  S
C483        C484   1.403       .  A
C484        C485   1.398       .  A
C484       Br496   1.917       .  S
C485        H488   1.083       .  S
H486       C1121   1.083       .  S
C487        C489   1.399       .  A
C487        C493   1.403       .  A
C489        C490   1.398       .  A
C489        H494   1.084       .  S
C490       C1130   1.420   1_454  A
C490       Br498   1.923       .  S
C491        C492   1.410       .  A
C491       C1129   1.417       .  A
C492       C1132   1.398       .  A
C492        H495   1.082   1_455  S
C493       C1131   1.399   1_554  A
C493       Br499   1.917   1_554  S
C500        C501   1.411       .  A
C500       C1144   1.405       .  A
C501       C1141   1.401       .  A
C501       Br517   1.918       .  S
C502        C503   1.400       .  A
C502       C1140   1.401       .  A
C502        H506   1.084       .  S
C503        C507   1.475       .  S
C503        C504   1.404       .  A
C504        C505   1.397   1_554  A
C504       Br516   1.919   1_554  S
C505       C1139   1.409       .  A
C505        H508   1.083       .  S
C507        C509   1.401       .  A
C507        C513   1.406       .  A
C509        C510   1.400       .  A
C509        H514   1.083       .  S
C510        C511   1.413       .  A
C510       Br518   1.920       .  S
C511        C512   1.405       .  A
C512        C513   1.398       .  A
C512        H515   1.082       .  S
C513      Br1158   1.919   1_554  S
Br519      C1152   1.920       .  S
C520        C521   1.416       .  A
C520        C525   1.407       .  A
C521        C522   1.401       .  A
C521       Br537   1.921       .  S
C522        C523   1.402       .  A
C522        H526   1.083       .  S
C523        C527   1.483       .  S
C523        C524   1.409       .  A
C524        C525   1.400       .  A
C524       Br536   1.920       .  S
C525        H528   1.083       .  S
C527        C529   1.400       .  A
C527        C533   1.412       .  A
C529        C530   1.395       .  A
C529        H534   1.084       .  S
C530        C531   1.410       .  A
C530       Br538   1.915   1_455  S
C531        C532   1.404       .  A
C532        C533   1.404       .  A
C532        H535   1.083       .  S
C533       Br539   1.918       .  S
C540        C541   1.418       .  A
C540        C545   1.410       .  A
C541        C542   1.394       .  A
C541       Br557   1.924       .  S
C542        C543   1.399       .  A
C542        H546   1.084       .  S
C543        C547   1.476       .  S
C543        C544   1.405       .  A
C544        C545   1.401       .  A
C544       Br556   1.918       .  S
C545        H548   1.084       .  S
C547        C549   1.404       .  A
C547        C553   1.406       .  A
C549        C550   1.402       .  A
C549        H554   1.084       .  S
C550        C551   1.411       .  A
C550       Br558   1.919       .  S
C551        C552   1.404       .  A
C552        C553   1.393       .  A
C552        H555   1.084       .  S
C553       Br559   1.920       .  S
C560        C561   1.420       .  A
C560        C565   1.405       .  A
C561        C562   1.399       .  A
C561       Br577   1.923       .  S
C562        C563   1.400       .  A
C562        H566   1.084       .  S
C563        C567   1.477       .  S
C563        C564   1.408       .  A
C564        C565   1.395       .  A
C564       Br576   1.921       .  S
C565        H568   1.084       .  S
C567        C569   1.401       .  A
C567        C573   1.406       .  A
C569        C570   1.398       .  A
C569        H574   1.084       .  S
C570        C571   1.418       .  A
C570       Br578   1.923       .  S
C571        C572   1.408       .  A
C572        C573   1.395       .  A
C572        H575   1.083       .  S
C573       Br579   1.920       .  S
C580        C581   1.419       .  A
C580        C585   1.412       .  A
C581        C582   1.403       .  A
C581       Br597   1.921       .  S
C582        C583   1.401       .  A
C582        H586   1.083       .  S
C583        C587   1.477       .  S
C583        C584   1.402       .  A
C584        C585   1.396       .  A
C584       Br596   1.919       .  S
C585        H588   1.083       .  S
C587        C589   1.400       .  A
C587        C593   1.408       .  A
C589        C590   1.399       .  A
C589        H594   1.084       .  S
C590        C591   1.411       .  A
C590       Br598   1.920       .  S
C591        C592   1.404       .  A
C592        C593   1.400       .  A
C592        H595   1.084       .  S
C593       Br599   1.919       .  S
C600        C601   1.414       .  A
C600       C1244   1.408       .  A
C601        C602   1.395       .  A
C601       Br617   1.917       .  S
C602       C1242   1.398       .  A
C602        H606   1.084       .  S
C603        C607   1.475       .  S
C603        C604   1.406       .  A
C603       C1241   1.399       .  A
C604        C605   1.398       .  A
C604       Br616   1.919       .  S
C605       C1239   1.408   1_554  A
C605        H608   1.082       .  S
C607        C609   1.400       .  A
C607        C613   1.408       .  A
C609        C610   1.397       .  A
C609        H614   1.084       .  S
C610        C611   1.415       .  A
C610       Br618   1.922       .  S
C611        C612   1.403       .  A
C612        C613   1.396       .  A
C612        H615   1.084       .  S
C613      Br1258   1.921   1_554  S
Br619      C1252   1.920       .  S
C620        C625   1.407       .  A
C620       C1260   1.417       .  A
C621        C622   1.398       .  A
C621       C1259   1.418   1_554  A
C621       Br637   1.923       .  S
C622        C623   1.399       .  A
C622        H626   1.083       .  S
C623        C627   1.474       .  S
C623       C1263   1.405       .  A
C624        C625   1.396       .  A
C624       C1262   1.404       .  A
C624       Br636   1.919       .  S
C625        H628   1.083       .  S
C627        C629   1.400       .  A
C627        C633   1.406       .  A
C629        C630   1.399       .  A
C629        H634   1.084       .  S
C630        C631   1.417       .  A
C630       Br638   1.922       .  S
C631        C632   1.406       .  A
C632        C633   1.396       .  A
C632        H635   1.084       .  S
C633       Br639   1.921   1_554  S
C640        N641   1.357       .  A
C640        N645   1.356       .  A
C640       C1250   1.478       .  S
N641        C642   1.357       .  A
C642        N643   1.357       .  A
C642       C1270   1.473       .  S
N643        C644   1.355       .  A
C644        N645   1.359       .  A
C644        C648   1.464       .  S
C646        N647   1.352       .  A
C646        N651   1.363       .  A
C646       C1199   1.485       .  S
N647        C648   1.351       .  A
C648        N649   1.358       .  A
N649        C650   1.361       .  A
C650        N651   1.363       .  A
C650       C1230   1.482       .  S
C652        N653   1.356       .  A
C652        N657   1.356       .  A
C652       C1190   1.477       .  S
N653        C654   1.356       .  A
C654        N655   1.363       .  A
C654        C660   1.471       .  S
N655        C656   1.363       .  A
C656        N657   1.358       .  A
C656       C1159   1.492       .  S
C658        N659   1.359       .  A
C658        N663   1.359       .  A
C658       C1150   1.486       .  S
N659        C660   1.360       .  A
C660        N661   1.357       .  A
N661        C662   1.360       .  A
C662        N663   1.357       .  A
C662       C1119   1.485       .  S
C664        N665   1.360       .  A
C664        N669   1.356       .  A
C664       C1099   1.468       .  S
N665        C666   1.358       .  A
C666        N667   1.355       .  A
C666       C1090   1.474       .  S
N667        C668   1.357       .  A
C668        N669   1.354       .  A
C668        C672   1.457       .  S
C670        N671   1.359       .  A
C670        N675   1.357       .  A
C670       C1070   1.468       .  S
N671        C672   1.358       .  A
C672        N673   1.352       .  A
N673        C674   1.352       .  A
C674        N675   1.357       .  A
C674       C1050   1.464       .  S
C676        N677   1.360       .  A
C676        N681   1.354       .  A
C676       C1030   1.471       .  S
N677        C678   1.362       .  A
C678        N679   1.362       .  A
C678       C1010   1.497       .  S
N679        C680   1.357       .  A
C680        N681   1.352       .  A
C680        C684   1.465       .  S
C682        N683   1.358       .  A
C682        N687   1.361       .  A
C682        C979   1.487       .  S
N683        C684   1.358       .  A
C684        N685   1.356       .  A
N685        C686   1.357       .  A
C686        N687   1.361       .  A
C686        C959   1.474       .  S
C688        N689   1.362       .  A
C688        N693   1.356       .  A
C688        C930   1.486       .  S
N689        C690   1.359       .  A
C690        N691   1.356       .  A
C690        C939   1.487       .  S
N691        C692   1.352       .  A
C692        N693   1.355       .  A
C692        C696   1.459       .  S
C694        N695   1.356       .  A
C694        N699   1.356       .  A
C694        C879   1.475       .  S
N695        C696   1.354       .  A
C696        N697   1.357       .  A
N697        C698   1.357       .  A
C698        N699   1.357       .  A
C698        C899   1.474       .  S
C700        N701   1.360       .  A
C700        N705   1.355       .  A
C700        C870   1.471       .  S
N701        C702   1.360       .  A
C702        N703   1.360       .  A
C702        C839   1.490       .  S
N703        C704   1.359       .  A
C704        N705   1.353       .  A
C704        C710   1.464       .  S
C706        N707   1.357       .  A
C706        N711   1.361       .  A
C706        C819   1.478       .  S
N707        C708   1.356       .  A
C708        N709   1.353       .  A
C708        C799   1.464       .  S
N709        C710   1.354       .  A
C710        N711   1.362       .  A
O712        C720   1.261       .  A
O712       Co732   1.976       .  S
O713        C721   1.266       .  A
O713       Co733   1.964       .  S
O714        C722   1.299       .  A
O714       Co734   2.125       .  S
O715        C723   1.271       .  A
O715       Co735   2.004       .  S
O716        C722   1.261       .  A
O716       Co733   1.867       .  S
O717        C723   1.262       .  A
O717       Co732   1.963       .  S
O718        C721   1.282       .  A
O718       Co735   2.034       .  S
O719        C720   1.263       .  A
O719       Co734   2.003       .  S
C720       C1210   1.488       .  S
C721        C850   1.492       .  S
C722        C890   1.474       .  S
C723       C1039   1.475       .  S
O724        C737   1.274       .  A
O724       Co732   2.029       .  S
O725        C738   1.295       .  A
O725       Co733   2.108       .  S
O726        C739   1.271       .  A
O726       Co734   1.971       .  S
O727        C740   1.256       .  A
O727       Co735   1.975       .  S
O728        C740   1.259       .  A
O728       Co733   1.985       .  S
O729        C739   1.276       .  A
O729       Co732   2.015       .  S
O730        C737   1.264       .  A
O730       Co735   1.960       .  S
O731        C738   1.266       .  A
O731       Co734   1.894       .  S
Co732       O736   2.013       .  S
Co733       O736   1.976       .  S
Co734       O736   1.998       .  S
Co735       O736   2.020       .  S
C737       C1079   1.490       .  S
C738        C919   1.480       .  S
C739       C1239   1.484       .  S
C740        C810   1.461       .  S
O741        C749   1.258       .  A
O741       Co761   1.976       .  S
O742        C750   1.269       .  A
O742       Co762   1.966       .  S
O743        C751   1.297       .  A
O743       Co763   2.121       .  S
O744        C752   1.270       .  A
O744       Co764   2.002       .  S
O745        C751   1.261       .  A
O745       Co762   1.869       .  S
O746        C752   1.265       .  A
O746       Co761   1.971       .  S
O747        C750   1.278       .  A
O747       Co764   2.029       .  S
O748        C749   1.265       .  A
O748       Co763   2.004       .  S
C749       C1130   1.489       .  S
C750        C990   1.486       .  S
C751        C950   1.472       .  S
C752       C1110   1.474   1_655  S
O753        C766   1.273       .  A
O753       Co761   2.009   1_455  S
O754        C767   1.294       .  A
O754       Co762   2.101       .  S
O755        C768   1.268   1_655  A
O755       Co763   1.967       .  S
O756        C769   1.260       .  A
O756       Co764   1.978       .  S
O757        C769   1.259       .  A
O757       Co762   1.991       .  S
O758        C768   1.280       .  A
O758       Co761   2.032   1_455  S
O759        C766   1.264   1_655  A
O759       Co764   1.964       .  S
O760        C767   1.267       .  A
O760       Co763   1.888       .  S
Co761       O765   2.011       .  S
Co762       O765   1.971       .  S
Co763       O765   2.003       .  S
Co764       O765   2.027       .  S
C766       C1059   1.482       .  S
C767        C910   1.473       .  S
C768       C1170   1.476       .  S
C769       C1019   1.482       .  S
O770        C778   1.261       .  A
O770       Co790   1.995       .  S
O771        C779   1.277       .  A
O771       Co791   2.024       .  S
O772        C780   1.263       .  A
O772       Co792   1.964   1_545  S
O773        C781   1.265       .  A
O773       Co793   1.881       .  S
O774        C780   1.273       .  A
O774       Co791   2.020       .  S
O775        C781   1.300       .  A
O775       Co790   2.123       .  S
O776        C779   1.271       .  A
O776       Co793   1.973   1_545  S
O777        C778   1.256       .  A
O777       Co792   1.975       .  S
C778       C1259   1.483       .  S
C779        C830   1.484       .  S
C780        C970   1.471       .  S
C781       C1139   1.486       .  S
O782        C795   1.260       .  A
O782       Co790   1.878       .  S
O783        C796   1.260       .  A
O783       Co791   1.961       .  S
O784        C797   1.279       .  A
O784       Co792   2.023       .  S
O785        C798   1.263       .  A
O785       Co793   1.997   1_545  S
O786        C798   1.256       .  A
O786       Co791   1.971       .  S
O787        C797   1.269       .  A
O787       Co790   1.976       .  S
O788        C795   1.298       .  A
O788       Co793   2.116       .  S
O789        C796   1.272       .  A
O789       Co792   2.025   1_545  S
Co790       O794   1.991       .  S
Co791       O794   2.017   1_545  S
Co792       O794   2.029       .  S
Co793       O794   2.002       .  S
C795       C1179   1.487       .  S
C796        C999   1.474       .  S
C797       C1219   1.491       .  S
C798        C859   1.481       .  S
C799        C800   1.409       .  A
C799        C804   1.402       .  A
C800        C801   1.395       .  A
C800       Br816   1.920       .  S
C801        C802   1.400       .  A
C801        H805   1.083       .  S
C802        C806   1.466       .  S
C802        C803   1.406       .  A
C803        C804   1.394       .  A
C803       Br815   1.920       .  S
C804        H807   1.083       .  S
C806        C812   1.406       .  A
C808        C809   1.399       .  A
C808        H813   1.084       .  S
C809        C810   1.408   1_554  A
C809       Br817   1.920       .  S
C811        C812   1.390       .  A
C811        H814   1.084       .  S
C812       Br818   1.921       .  S
C819        C820   1.413       .  A
C819        C824   1.404       .  A
C820        C821   1.399       .  A
C820       Br836   1.921       .  S
C821        C822   1.401       .  A
C822        C826   1.478       .  S
C822        C823   1.407       .  A
C823        C824   1.400       .  A
C823       Br835   1.918       .  S
C824        H827   1.083       .  S
C826        C828   1.400       .  A
C826        C832   1.406       .  A
C828        H833   1.084       .  S
C829        C830   1.416       .  A
C829       Br837   1.920       .  S
C830        C831   1.408   1_556  A
C831        H834   1.084       .  S
C832       Br838   1.918       .  S
C839        C840   1.417       .  A
C839        C844   1.409       .  A
C840        C841   1.400       .  A
C840       Br856   1.921       .  S
C841        C842   1.402       .  A
C841        H845   1.083       .  S
C842        C846   1.484       .  S
C842        C843   1.407       .  A
C843        C844   1.400       .  A
C843       Br855   1.919       .  S
C844        H847   1.083       .  S
C846        C848   1.402       .  A
C846        C852   1.406       .  A
C848        C849   1.402       .  A
C848        H853   1.084       .  S
C849        C850   1.420       .  A
C849       Br857   1.923       .  S
C850        C851   1.409       .  A
C851        C852   1.398       .  A
C851        H854   1.083       .  S
C852       Br858   1.919       .  S
C859        C860   1.416       .  A
C859        C864   1.408       .  A
C860        C861   1.399       .  A
C860       Br876   1.922       .  S
C861        C862   1.400       .  A
C861        H865   1.083       .  S
C862        C866   1.472       .  S
C862        C863   1.404       .  A
C863        C864   1.395       .  A
C863       Br875   1.920       .  S
C864        H867   1.083       .  S
C866        C868   1.400       .  A
C866        C872   1.408       .  A
C868        C869   1.398       .  A
C868        H873   1.083       .  S
C869        C870   1.412       .  A
C869       Br877   1.920       .  S
C870        C871   1.402       .  A
C871        C872   1.395       .  A
C871        H874   1.082       .  S
C872       Br878   1.920       .  S
C879        C880   1.414       .  A
C879        C884   1.406       .  A
C880        C881   1.397       .  A
C880       Br896   1.922       .  S
C881        C882   1.401       .  A
C881        H885   1.084       .  S
C882        C886   1.468       .  S
C882        C883   1.402       .  A
C883        C884   1.393       .  A
C883       Br895   1.919       .  S
C884        H887   1.083       .  S
C886        C888   1.400       .  A
C886        C892   1.403       .  A
C888        C889   1.397       .  A
C888        H893   1.084       .  S
C889        C890   1.411       .  A
C889       Br897   1.914       .  S
C890        C891   1.407       .  A
C891        C892   1.392       .  A
C891        H894   1.084       .  S
C892       Br898   1.920       .  S
C899        C900   1.413       .  A
C899        C904   1.407       .  A
C900        C901   1.395       .  A
C900       Br916   1.921       .  S
C901        C902   1.398       .  A
C901        H905   1.083       .  S
C902        C906   1.466       .  S
C902        C903   1.404       .  A
C903        C904   1.397       .  A
C903       Br915   1.918       .  S
C904        H907   1.083       .  S
C906        C908   1.398       .  A
C906        C912   1.403       .  A
C908        C909   1.393       .  A
C908        H913   1.083       .  S
C909        C910   1.413       .  A
C909       Br917   1.920       .  S
C910        C911   1.406       .  A
C911        C912   1.397       .  A
C911        H914   1.079       .  S
C912       Br918   1.917       .  S
C919        C924   1.406       .  A
C920        C921   1.398       .  A
C920       Br936   1.923       .  S
C921        C922   1.398       .  A
C921        H925   1.083       .  S
C922        C926   1.471       .  S
C922        C923   1.404       .  A
C923       Br935   1.920       .  S
C924        H927   1.084       .  S
C926        C928   1.398       .  A
C926        C932   1.404       .  A
C928        C929   1.399       .  A
C928        H933   1.086       .  S
C929        C930   1.420       .  A
C929       Br937   1.922       .  S
C930        C931   1.405       .  A
C931        C932   1.392       .  A
C931        H934   1.087       .  S
C939        C940   1.419       .  A
C939        C944   1.412       .  A
C940        C941   1.396       .  A
C940       Br956   1.918       .  S
C941        C942   1.397       .  A
C941        H945   1.084       .  S
C942        C946   1.465       .  S
C942        C943   1.399       .  A
C943        C944   1.394       .  A
C943       Br955   1.919       .  S
C944        H947   1.083       .  S
C946        C952   1.401       .  A
C948        C949   1.399   1_554  A
C948        H953   1.089       .  S
C949        C950   1.413       .  A
C949       Br957   1.919       .  S
C951        C952   1.389       .  A
C951        H954   1.084       .  S
C952       Br958   1.920       .  S
C959        C960   1.411       .  A
C959        C964   1.403       .  A
C960        C961   1.400       .  A
C960       Br976   1.920       .  S
C961        C962   1.402       .  A
C962        C966   1.478       .  S
C962        C963   1.408       .  A
C963        C964   1.398       .  A
C963       Br975   1.919       .  S
C964        H967   1.083       .  S
C966        C968   1.403       .  A
C966        C972   1.408       .  A
C968        H973   1.084       .  S
C969        C970   1.409   1_554  A
C969       Br977   1.919       .  S
C970        C971   1.403       .  A
C971        H974   1.084       .  S
C972       Br978   1.920       .  S
C979        C980   1.418       .  A
C979        C984   1.407       .  A
C980        C981   1.401       .  A
C980       Br996   1.921       .  S
C981        C982   1.400       .  A
C981        H985   1.084       .  S
C982        C986   1.481       .  S
C982        C983   1.408       .  A
C983        C984   1.400       .  A
C984        H987   1.084       .  S
C986        C992   1.405       .  A
C988        C989   1.401   1_554  A
C988        H993   1.083       .  S
C989        C990   1.417       .  A
C989       Br997   1.921       .  S
C991        C992   1.398       .  A
C991        H994   1.083       .  S
C992       Br998   1.919       .  S
C999       C1000   1.412       .  A
C999       C1004   1.405       .  A
C1000      C1001   1.393       .  A
C1000     Br1016   1.923       .  S
C1001      C1002   1.399       .  A
C1001      H1005   1.084       .  S
C1002      C1006   1.477       .  S
C1002      C1003   1.408       .  A
C1003      C1004   1.404       .  A
C1003     Br1015   1.916       .  S
C1004      H1007   1.083       .  S
C1006      C1008   1.400       .  A
C1006      C1012   1.403       .  A
C1008      C1009   1.402       .  A
C1008      H1013   1.085       .  S
C1009      C1010   1.422       .  A
C1009     Br1017   1.922       .  S
C1010      C1011   1.412       .  A
C1011      C1012   1.397       .  A
C1011      H1014   1.083       .  S
C1012     Br1018   1.919       .  S
C1019      C1020   1.420       .  A
C1019      C1024   1.408       .  A
C1020      C1021   1.395       .  A
C1020     Br1036   1.924       .  S
C1021      C1022   1.397       .  A
C1021      H1025   1.084       .  S
C1022      C1026   1.472       .  S
C1022      C1023   1.405       .  A
C1023      C1024   1.398       .  A
C1023     Br1035   1.918       .  S
C1024      H1027   1.083       .  S
C1026      C1028   1.398       .  A
C1026      C1032   1.409       .  A
C1028      C1029   1.395       .  A
C1028      H1033   1.084       .  S
C1029      C1030   1.411       .  A
C1029     Br1037   1.920       .  S
C1030      C1031   1.403       .  A
C1031      C1032   1.401       .  A
C1031      H1034   1.084       .  S
C1032     Br1038   1.919       .  S
C1039      C1040   1.414       .  A
C1039      C1044   1.407       .  A
C1040      C1041   1.397       .  A
C1040     Br1056   1.921       .  S
C1041      C1042   1.400       .  A
C1041      H1045   1.083       .  S
C1042      C1046   1.465       .  S
C1042      C1043   1.403       .  A
C1043      C1044   1.391       .  A
C1043     Br1055   1.920       .  S
C1044      H1047   1.083       .  S
C1046      C1048   1.398       .  A
C1046      C1052   1.407       .  A
C1048      C1049   1.396       .  A
C1048      H1053   1.084       .  S
C1049      C1050   1.412       .  A
C1049     Br1057   1.920       .  S
C1050      C1051   1.400       .  A
C1051      C1052   1.391       .  A
C1051      H1054   1.084       .  S
C1052     Br1058   1.919       .  S
C1059      C1060   1.416       .  A
C1059      C1064   1.409       .  A
C1060      C1061   1.398       .  A
C1060     Br1076   1.922   1_455  S
C1061      C1062   1.399       .  A
C1061      H1065   1.084       .  S
C1062      C1066   1.470       .  S
C1062      C1063   1.403       .  A
C1063      C1064   1.394       .  A
C1063     Br1075   1.919       .  S
C1064      H1067   1.083       .  S
C1066      C1068   1.400       .  A
C1066      C1072   1.408       .  A
C1068      C1069   1.397       .  A
C1068      H1073   1.084       .  S
C1069      C1070   1.409       .  A
C1069     Br1077   1.918       .  S
C1070      C1071   1.402       .  A
C1071      C1072   1.396       .  A
C1071      H1074   1.084       .  S
C1072     Br1078   1.921       .  S
C1079      C1080   1.419       .  A
C1080      C1081   1.401       .  A
C1080     Br1096   1.921       .  S
C1081      H1085   1.084       .  S
C1082      C1086   1.477       .  S
C1082      C1083   1.407       .  A
C1083      C1084   1.399       .  A
C1083     Br1095   1.919       .  S
C1084      H1087   1.083       .  S
C1086      C1088   1.403       .  A
C1086      C1092   1.407       .  A
C1088      C1089   1.398       .  A
C1088      H1093   1.084       .  S
C1089      C1090   1.409       .  A
C1089     Br1097   1.920       .  S
C1090      C1091   1.405       .  A
C1091      C1092   1.399       .  A
C1091      H1094   1.084       .  S
C1092     Br1098   1.919       .  S
C1099      C1100   1.412       .  A
C1099      C1104   1.400       .  A
C1100      C1101   1.399       .  A
C1100     Br1116   1.920       .  S
C1101      C1102   1.400       .  A
C1101      H1105   1.084       .  S
C1102      C1106   1.470       .  S
C1102      C1103   1.408       .  A
C1103      C1104   1.392       .  A
C1104      H1107   1.084       .  S
C1106      C1108   1.400       .  A
C1108      C1109   1.398       .  A
C1108      H1113   1.083       .  S
C1109     Br1117   1.920   1_455  S
C1110      C1111   1.406       .  A
C1111      C1112   1.393       .  A
C1111      H1114   1.083       .  S
C1112     Br1118   1.921       .  S
C1119      C1120   1.418       .  A
C1119      C1124   1.408       .  A
C1120      C1121   1.397       .  A
C1120     Br1136   1.919       .  S
C1121      C1122   1.399       .  A
C1122      C1126   1.476       .  S
C1122      C1123   1.404       .  A
C1123      C1124   1.398       .  A
C1123     Br1135   1.918       .  S
C1124      H1127   1.083       .  S
C1126      C1128   1.400       .  A
C1126      C1132   1.404       .  A
C1128      C1129   1.397       .  A
C1128      H1133   1.084       .  S
C1129     Br1137   1.920       .  S
C1130      C1131   1.409   1_655  A
C1131      H1134   1.083   1_455  S
C1132     Br1138   1.918       .  S
C1139      C1140   1.414   1_556  A
C1140     Br1156   1.913       .  S
C1141      C1142   1.402       .  A
C1141      H1145   1.084       .  S
C1142      C1146   1.478       .  S
C1142      C1143   1.407       .  A
C1143      C1144   1.397       .  A
C1143     Br1155   1.920       .  S
C1144      H1147   1.084       .  S
C1146      C1148   1.403       .  A
C1146      C1152   1.405       .  A
C1148      C1149   1.403       .  A
C1148      H1153   1.083       .  S
C1149      C1150   1.415       .  A
C1149     Br1157   1.920       .  S
C1150      C1151   1.406       .  A
C1151      C1152   1.395       .  A
C1151      H1154   1.079       .  S
C1159      C1160   1.420       .  A
C1159      C1164   1.409       .  A
C1160      C1161   1.397       .  A
C1160     Br1176   1.923       .  S
C1161      C1162   1.399       .  A
C1161      H1165   1.083       .  S
C1162      C1166   1.484       .  S
C1162      C1163   1.409       .  A
C1163      C1164   1.404       .  A
C1163     Br1175   1.919       .  S
C1164      H1167   1.082       .  S
C1166      C1168   1.402       .  A
C1166      C1172   1.411       .  A
C1168      C1169   1.398       .  A
C1168      H1173   1.083       .  S
C1169      C1170   1.409       .  A
C1169     Br1177   1.915   1_455  S
C1170      C1171   1.403       .  A
C1171      C1172   1.401       .  A
C1171      H1174   1.079       .  S
C1172     Br1178   1.919       .  S
C1179      C1180   1.421       .  A
C1179      C1184   1.410       .  A
C1180      C1181   1.395       .  A
C1180     Br1196   1.925       .  S
C1181      C1182   1.397       .  A
C1181      H1185   1.084       .  S
C1182      C1186   1.473       .  S
C1182      C1183   1.403       .  A
C1183      C1184   1.400       .  A
C1183     Br1195   1.917       .  S
C1184      H1187   1.084       .  S
C1186      C1188   1.401       .  A
C1186      C1192   1.405       .  A
C1188      C1189   1.400       .  A
C1188      H1193   1.084       .  S
C1189      C1190   1.413       .  A
C1189     Br1197   1.920       .  S
C1190      C1191   1.405       .  A
C1191      C1192   1.396       .  A
C1191      H1194   1.084       .  S
C1192     Br1198   1.919       .  S
C1199      C1200   1.420       .  A
C1199      C1204   1.406       .  A
C1200      C1201   1.397       .  A
C1200     Br1216   1.925       .  S
C1201      C1202   1.399       .  A
C1201      H1205   1.084       .  S
C1202      C1206   1.478       .  S
C1202      C1203   1.409       .  A
C1203      C1204   1.398       .  A
C1203     Br1215   1.920       .  S
C1204      H1207   1.084       .  S
C1206      C1208   1.400       .  A
C1206      C1212   1.407       .  A
C1208      C1209   1.400       .  A
C1208      H1213   1.084       .  S
C1209      C1210   1.418       .  A
C1209     Br1217   1.920       .  S
C1210      C1211   1.409       .  A
C1211      C1212   1.396       .  A
C1211      H1214   1.083       .  S
C1212     Br1218   1.922       .  S
C1219      C1220   1.418       .  A
C1219      C1224   1.410       .  A
C1220      C1221   1.400       .  A
C1220     Br1236   1.920       .  S
C1221      C1222   1.400       .  A
C1221      H1225   1.084       .  S
C1222      C1226   1.479       .  S
C1222      C1223   1.404       .  A
C1223      C1224   1.400       .  A
C1223     Br1235   1.917       .  S
C1224      H1227   1.083       .  S
C1226      C1228   1.401       .  A
C1226      C1232   1.408       .  A
C1228      C1229   1.402       .  A
C1228      H1233   1.084       .  S
C1229      C1230   1.414       .  A
C1229     Br1237   1.919       .  S
C1230      C1231   1.405       .  A
C1231      C1232   1.399       .  A
C1231      H1234   1.084       .  S
C1232     Br1238   1.919       .  S
C1239      C1240   1.418       .  A
C1240      C1241   1.395   1_556  A
C1240     Br1256   1.922       .  S
C1241      H1245   1.084   1_554  S
C1242      C1246   1.471       .  S
C1242      C1243   1.404       .  A
C1243      C1244   1.399       .  A
C1243     Br1255   1.918       .  S
C1244      H1247   1.084       .  S
C1246      C1248   1.401       .  A
C1246      C1252   1.404       .  A
C1248      C1249   1.401       .  A
C1248      H1253   1.084       .  S
C1249      C1250   1.415       .  A
C1249     Br1257   1.921       .  S
C1250      C1251   1.405       .  A
C1251      C1252   1.394       .  A
C1251      H1254   1.084       .  S
C1259      C1264   1.408       .  A
C1260      C1261   1.395       .  A
C1260     Br1276   1.923       .  S
C1261      C1262   1.398       .  A
C1261      H1265   1.083       .  S
C1262      C1266   1.469       .  S
C1263      C1264   1.396   1_554  A
C1263     Br1275   1.919   1_554  S
C1264      H1267   1.083       .  S
C1266      C1268   1.400       .  A
C1266      C1272   1.405       .  A
C1268      C1269   1.397       .  A
C1268      H1273   1.084       .  S
C1269      C1270   1.413       .  A
C1269     Br1277   1.921       .  S
C1270      C1271   1.405       .  A
C1271      C1272   1.395       .  A
C1271      H1274   1.084       .  S
C1272     Br1278   1.920       .  S
