geometry optimzed in LAMMPS
_audit_creation_date              2020-11-30 
_audit_creation_method            'lammps2cif' 
_symmetry_space_group_name_H-M    'P1' 
_symmetry_Int_Tables_number       1 
_symmetry_cell_setting            triclinic 
loop_ 
_symmetry_equiv_pos_as_xyz 
  x,y,z 
_cell_length_a                    35.55945300774369 
_cell_length_b                    35.7126079983969 
_cell_length_c                    35.56873173019907 
_cell_angle_alpha                 89.90206369313789 
_cell_angle_beta                  90.56913004692444 
_cell_angle_gamma                 90.3784990945991 
loop_ 
_atom_site_label 
_atom_site_type_symbol 
_atom_site_fract_x 
_atom_site_fract_y 
_atom_site_fract_z 
_atom_site_charge 
O1          O  0.54402065  0.40009021  0.49992166    -0.81380
O2          O  0.51913737  0.24283929  0.43039303    -0.81400
O3          O  0.57182970  0.28158128  0.54099652    -0.81410
O4          O  0.48450496  0.33848213  0.41081691    -0.81350
O5          O  0.56530538  0.25473916  0.48612211    -0.81480
O6          O  0.49411601  0.38250802  0.45200857    -0.81400
O7          O  0.46337502  0.26339639  0.41740045    -0.81380
O8          O  0.57504113  0.34896747  0.50844365    -0.81420
C9          C  0.57534942  0.38482760  0.50475371     1.08310
C10         C  0.49248641  0.24670206  0.40755926     1.08190
C11         C  0.58592504  0.26345766  0.51346618     1.08330
C12         C  0.49311772  0.37217651  0.41842686     1.08210
O13         O  0.46967080  0.36763568  0.51694650    -0.81380
O14         O  0.50936302  0.23678925  0.54151185    -0.81460
O15         O  0.54045157  0.35022816  0.57793162    -0.81390
O16         O  0.42423777  0.27810865  0.48263675    -0.81370
O17         O  0.45720328  0.22565883  0.48224537    -0.81430
O18         O  0.49508237  0.37066545  0.54083431    -0.81390
O19         O  0.43164789  0.35120679  0.47027105    -0.81350
O20         O  0.49137302  0.29194203  0.56159300    -0.81420
Co21       Co  0.51873585  0.35286771  0.49146449     1.51530
Co22       Co  0.51198994  0.24386354  0.48535840     1.51690
Co23       Co  0.52930296  0.31982812  0.53260900     1.51570
Co24       Co  0.45523121  0.30754679  0.44852909     1.51470
O25         O  0.50071134  0.30037347  0.48488394    -1.43320
C26         C  0.43760845  0.36880592  0.49995119     1.08240
C27         C  0.49737313  0.25769967  0.56754598     1.08330
C28         C  0.51478915  0.37439193  0.57143000     1.08260
C29         C  0.42586965  0.24290318  0.48431032     1.08240
O30         O  0.51311325  0.39366341  0.35769177    -0.81380
O31         O  0.43527195  0.51630264  0.29782602    -0.81400
O32         O  0.48259320  0.46569478  0.40588547    -0.81410
O33         O  0.49840984  0.41222735  0.26124216    -0.81350
O34         O  0.43736756  0.48370870  0.36781257    -0.81480
O35         O  0.55053106  0.40242304  0.29376008    -0.81400
O36         O  0.44422969  0.46655814  0.26142870    -0.81380
O37         O  0.50574859  0.43502540  0.40087361    -0.81420
C38         C  0.50376664  0.40066782  0.39066368     1.08310
C39         C  0.42322477  0.49215699  0.27395664     1.08190
C40         C  0.44709966  0.47163581  0.39999034     1.08330
C41         C  0.52531960  0.39101663  0.27072103     1.08210
O42         O  0.57124054  0.47859174  0.31516614    -0.81380
O43         O  0.46446031  0.55524455  0.36259329    -0.81460
O44         O  0.56813271  0.47231138  0.40004403    -0.81390
O45         O  0.49781465  0.52275408  0.25368823    -0.81370
O46         O  0.51441224  0.53905108  0.31004134    -0.81430
O47         O  0.58619416  0.42326938  0.36612407    -0.81390
O48         O  0.55499015  0.46824507  0.25662934    -0.81350
O49         O  0.51456983  0.52914260  0.38977328    -0.81420
Co50       Co  0.54064356  0.43748041  0.33662094     1.51530
Co51       Co  0.47561794  0.50964326  0.33729382     1.51690
Co52       Co  0.52519233  0.47588537  0.36591453     1.51570
Co53       Co  0.49889726  0.46725048  0.26189359     1.51470
O54         O  0.49361801  0.46303913  0.31940879    -1.43320
C55         C  0.57980787  0.47673387  0.28090750     1.08240
C56         C  0.49080405  0.55672502  0.38696427     1.08330
C57         C  0.59147794  0.44572726  0.39400131     1.08260
C58         C  0.50947132  0.54753301  0.27608241     1.08240
O59         O  0.51944156  0.59180144  0.43842536    -0.81380
O60         O  0.56947218  0.71720251  0.48534059    -0.81400
O61         O  0.52216175  0.66340233  0.42654532    -0.81410
O62         O  0.59793156  0.61800474  0.51102112    -0.81350
O63         O  0.50361335  0.71750528  0.44581151    -0.81480
O64         O  0.55564708  0.57276719  0.50168079    -0.81400
O65         O  0.59155905  0.69165057  0.53669803    -0.81380
O66         O  0.46585674  0.61181156  0.41676532    -0.81420
C67         C  0.49262284  0.58867520  0.41396533     1.08310
C68         C  0.59692622  0.70852967  0.50619499     1.08190
C69         C  0.51382196  0.69662649  0.41944833     1.08330
C70         C  0.58971379  0.58400521  0.50512850     1.08210
O71         O  0.49222642  0.59319397  0.54861957    -0.81380
O72         O  0.46303034  0.70674172  0.51408647    -0.81460
O73         O  0.44697085  0.60653592  0.48872723    -0.81390
O74         O  0.53154345  0.66633779  0.58216071    -0.81370
O75         O  0.52657390  0.72184325  0.55561633    -0.81430
O76         O  0.47926807  0.55456019  0.48679289    -0.81390
O77         O  0.54986493  0.59520110  0.56767819    -0.81350
O78         O  0.44777817  0.67627543  0.46198606    -0.81420
Co79       Co  0.50655795  0.59917105  0.49465442     1.51530
Co80       Co  0.51617145  0.71119560  0.50068361     1.51690
Co81       Co  0.48790551  0.63639789  0.46073304     1.51570
Co82       Co  0.56417131  0.64388468  0.54527553     1.51470
O83         O  0.52279731  0.65298688  0.50403652    -1.43320
C84         C  0.51804941  0.58048044  0.56929920     1.08240
C85         C  0.43883532  0.69652045  0.48999549     1.08330
C86         C  0.44740879  0.57067836  0.48681160     1.08260
C87         C  0.52602057  0.70086738  0.58441918     1.08240
O88         O  0.60683749  0.44391157  0.50927144    -0.81380
O89         O  0.74614276  0.46248295  0.56091430    -0.81400
O90         O  0.71121682  0.39212055  0.46123637    -0.81410
O91         O  0.65056221  0.49324199  0.57383807    -0.81350
O92         O  0.74620343  0.40321254  0.51211578    -0.81480
O93         O  0.60838919  0.46900309  0.53891653    -0.81400
O94         O  0.71711481  0.51732415  0.56254831    -0.81380
O95         O  0.64066455  0.39556523  0.49168260    -0.81420
C96         C  0.60967867  0.40838907  0.50280782     1.08310
C97         C  0.73726147  0.49206452  0.57822997     1.08190
C98         C  0.73356550  0.38112937  0.48725758     1.08330
C99         C  0.61810769  0.47975387  0.57187161     1.08210
O100        O  0.60950190  0.52470641  0.49002009    -0.81380
O101        O  0.75705477  0.45199781  0.45090570    -0.81460
O102        O  0.64715373  0.41687152  0.41936133    -0.81390
O103        O  0.70332728  0.52976797  0.48201613    -0.81370
O104        O  0.75860434  0.51257333  0.50180119    -0.81430
O105        O  0.62257744  0.46652435  0.44764539    -0.81390
O106        O  0.64814724  0.55646827  0.52759493    -0.81350
O107        O  0.70102665  0.46820699  0.43287174    -0.81420
Co108      Co  0.64539768  0.48543703  0.49721052     1.51530
Co109      Co  0.74834360  0.45750363  0.50658898     1.51690
Co110      Co  0.67268181  0.43206355  0.46444946     1.51570
Co111      Co  0.67573761  0.50765175  0.52530606     1.51470
O112        O  0.69042652  0.45466929  0.51046980    -1.43320
C113        C  0.61792032  0.55487986  0.50702004     1.08240
C114        C  0.73507312  0.46311861  0.42522469     1.08330
C115        C  0.62245033  0.44236113  0.42078316     1.08260
C116        C  0.73771272  0.53735564  0.48769130     1.08240
O117        O  0.46236290  0.48733961  0.61076413    -0.81380
O118        O  0.52092677  0.52789687  0.74907299    -0.81400
O119        O  0.44327296  0.49068101  0.68359826    -0.81410
O120        O  0.51098444  0.55308544  0.62807709    -0.81350
O121        O  0.46559203  0.47317884  0.73825317    -0.81480
O122        O  0.52387517  0.51527008  0.58315215    -0.81400
O123        O  0.52413570  0.56291795  0.69807187    -0.81380
O124        O  0.43142107  0.43758976  0.62925312    -0.81420
C125        C  0.43525922  0.46438067  0.60606624     1.08310
C126        C  0.51850899  0.55940840  0.73246543     1.08190
C127        C  0.43811919  0.48391446  0.71808981     1.08330
C128        C  0.51427819  0.54766509  0.59372208     1.08210
O129        O  0.57012034  0.45570179  0.61358157    -0.81380
O130        O  0.52392830  0.41958575  0.71931850    -0.81460
O131        O  0.50516385  0.41196181  0.62816061    -0.81390
O132        O  0.59389383  0.52198015  0.69662087    -0.81370
O133        O  0.57573616  0.47224018  0.72992657    -0.81430
O134        O  0.50857835  0.43982493  0.57322045    -0.81390
O135        O  0.58548687  0.51468264  0.61916184    -0.81350
O136        O  0.46797390  0.41544427  0.69496418    -0.81420
Co137      Co  0.51628320  0.46985506  0.61678826     1.51530
Co138      Co  0.52161945  0.47416342  0.72953261     1.51690
Co139      Co  0.47587347  0.45501170  0.65601470     1.51570
Co140      Co  0.55143235  0.53448535  0.66137637     1.51470
O141        O  0.52168002  0.48608013  0.67188026    -1.43320
C142        C  0.59134175  0.48256861  0.60447744     1.08240
C143        C  0.49515913  0.40006274  0.71181111     1.08330
C144        C  0.50929659  0.40970404  0.59217215     1.08260
C145        C  0.60041814  0.49471876  0.71874453     1.08240
O146        O  0.41038386  0.42703685  0.48811551    -0.81380
O147        O  0.26670719  0.48163030  0.44730643    -0.81400
O148        O  0.33113088  0.40557975  0.48207907    -0.81410
O149        O  0.39286925  0.49505599  0.42303412    -0.81350
O150        O  0.27609433  0.42557512  0.50099501    -0.81480
O151        O  0.41851363  0.45499582  0.46251503    -0.81400
O152        O  0.31983351  0.48212999  0.41453387    -0.81380
O153        O  0.38649878  0.39378039  0.53471916    -0.81420
C154        C  0.41068876  0.39727234  0.50881521     1.08310
C155        C  0.28482824  0.47669894  0.41698290     1.08190
C156        C  0.29710414  0.39905199  0.48965104     1.08330
C157        C  0.41786638  0.47181468  0.43016227     1.08210
O158        O  0.42201549  0.51374222  0.49172527    -0.81380
O159        O  0.29333505  0.48493417  0.55601687    -0.81460
O160        O  0.38061535  0.46284893  0.56631981    -0.81390
O161        O  0.30431273  0.54852016  0.44939071    -0.81370
O162        O  0.28267405  0.53803242  0.50529351    -0.81430
O163        O  0.43541296  0.46830431  0.54108713    -0.81390
O164        O  0.38131301  0.55573987  0.47319138    -0.81350
O165        O  0.31772210  0.42963531  0.55900123    -0.81420
Co166      Co  0.39141235  0.47502642  0.51092337     1.51530
Co167      Co  0.28341616  0.48259764  0.50172938     1.51690
Co168      Co  0.35729396  0.43703011  0.51942197     1.51570
Co169      Co  0.34900190  0.51739384  0.44448097     1.51470
O170        O  0.33979963  0.48249755  0.48948910    -1.43320
C171        C  0.41412142  0.54677924  0.48492735     1.08240
C172        C  0.29982065  0.45586989  0.57457291     1.08330
C173        C  0.41611555  0.46542821  0.57024324     1.08260
C174        C  0.28686869  0.55947908  0.47761091     1.08240
O175        O  0.90758969  0.52535460  0.02043679    -0.81380
O176        O  0.75864963  0.46146750  0.04783776    -0.81400
O177        O  0.82908705  0.52936854  0.01302608    -0.81410
O178        O  0.88411794  0.44785120  0.07176616    -0.81350
O179        O  0.77179760  0.51652404  0.99459806    -0.81480
O180        O  0.90395916  0.50295738  0.05043944    -0.81400
O181        O  0.80987093  0.44407845  0.07829642    -0.81380
O182        O  0.88746557  0.54472700  0.96467358    -0.81420
C183        C  0.91120615  0.54756777  0.99232700     1.08310
C184        C  0.77719948  0.45698947  0.07809959     1.08190
C185        C  0.79549907  0.53931381  0.00800823     1.08330
C186        C  0.90358997  0.47779071  0.07554653     1.08210
O187        O  0.91198748  0.44284834  0.00528033    -0.81380
O188        O  0.77877817  0.46189207  0.93837028    -0.81460
O189        O  0.87706857  0.47554599  0.92837981    -0.81390
O190        O  0.80537539  0.38323266  0.02742828    -0.81370
O191        O  0.76180885  0.40602944  0.98900791    -0.81430
O192        O  0.91390365  0.47123530  0.97528210    -0.81390
O193        O  0.87963570  0.39072264  0.01410796    -0.81350
O194        O  0.81376006  0.51326577  0.93484344    -0.81420
Co195      Co  0.87115630  0.48334974  0.01303220     1.51530
Co196      Co  0.77244928  0.46073630  0.99284450     1.51690
Co197      Co  0.85322515  0.49978277  0.97290711     1.51570
Co198      Co  0.84318989  0.41941369  0.04283255     1.51470
O199        O  0.83058229  0.45187703  0.99499202    -1.43320
C200        C  0.90995441  0.40676795  0.00576901     1.08240
C201        C  0.79116683  0.48964035  0.91984862     1.08330
C202        C  0.91016636  0.47221215  0.93949014     1.08260
C203        C  0.77625863  0.37927362  0.00731682     1.08240
O204        O  0.94468430  0.46797322  0.87873268    -0.81380
O205        O  0.06429730  0.55241108  0.79847257    -0.81400
O206        O  0.99688787  0.54307537  0.88402932    -0.81410
O207        O  0.95739956  0.49032142  0.78109454    -0.81350
O208        O  0.05757116  0.55219905  0.87416262    -0.81480
O209        O  0.95131803  0.43554047  0.80577785    -0.81400
O210        O  0.00815714  0.54145306  0.77453394    -0.81380
O211        O  0.97454229  0.48411437  0.93078512    -0.81420
C212        C  0.94420777  0.47396744  0.91503938     1.08310
C213        C  0.03445617  0.56366792  0.78191847     1.08190
C214        C  0.02665355  0.56329126  0.88774971     1.08330
C215        C  0.93774986  0.46182290  0.78664069     1.08210
O216        O  0.02672194  0.41205112  0.82075793    -0.81380
O217        O  0.08524139  0.47581508  0.87656340    -0.81460
O218        O  0.01197199  0.42855078  0.89879304    -0.81390
O219        O  0.06566291  0.49010838  0.75312551    -0.81370
O220        O  0.09418794  0.47446761  0.80460807    -0.81430
O221        O  0.96763175  0.39869758  0.86674227    -0.81390
O222        O  0.01184433  0.43127637  0.76411020    -0.81350
O223        O  0.04753024  0.49609471  0.91915535    -0.81420
Co224      Co  0.98897775  0.44266600  0.84707772     1.51530
Co225      Co  0.07222611  0.51175351  0.83783484     1.51690
Co226      Co  0.00274600  0.48679991  0.88611325     1.51570
Co227      Co  0.01137924  0.48783086  0.77274698     1.51470
O228        O  0.02043837  0.48780533  0.83135333    -1.43320
C229        C  0.02132423  0.40495734  0.78639872     1.08240
C230        C  0.07901173  0.48363194  0.91016342     1.08330
C231        C  0.99047641  0.39914015  0.89376585     1.08260
C232        C  0.09563142  0.48056809  0.77016274     1.08240
O233        O  0.10047086  0.42837330  0.99341403    -0.81380
O234        O  0.23134357  0.46138786  0.05857964    -0.81400
O235        O  0.21785832  0.39357437  0.95580226    -0.81410
O236        O  0.14040061  0.48149222  0.07304438    -0.81350
O237        O  0.23958799  0.40497763  0.01176222    -0.81480
O238        O  0.08658756  0.46911669  0.04711041    -0.81400
O239        O  0.20601108  0.51690425  0.06309161    -0.81380
O240        O  0.14215813  0.38763880  0.97608896    -0.81420
C241        C  0.10940573  0.39562950  0.98748292     1.08310
C242        C  0.22292519  0.48928355  0.07811073     1.08190
C243        C  0.23280487  0.38205801  0.98568640     1.08330
C244        C  0.10507262  0.47411198  0.07673289     1.08210
O245        O  0.10993228  0.51243996  0.99577946    -0.81380
O246        O  0.25616027  0.45702085  0.94957519    -0.81460
O247        O  0.12979945  0.44976384  0.92777431    -0.81390
O248        O  0.19023374  0.53657519  0.98503708    -0.81370
O249        O  0.24676917  0.51655111  0.00097257    -0.81430
O250        O  0.10777057  0.48796897  0.97111753    -0.81390
O251        O  0.13600657  0.55061164  0.03731675    -0.81350
O252        O  0.20220281  0.46282695  0.91947064    -0.81420
Co253      Co  0.13161254  0.46430307  0.01813171     1.51530
Co254      Co  0.23987608  0.46022581  0.00475796     1.51690
Co255      Co  0.17359680  0.42626403  0.94879746     1.51570
Co256      Co  0.16491935  0.50662594  0.02442188     1.51470
O257        O  0.18259691  0.46009564  0.99522687    -1.43320
C258        C  0.11034348  0.54424287  0.01276500     1.08240
C259        C  0.23750408  0.46199917  0.91908861     1.08330
C260        C  0.10727527  0.47424331  0.93767670     1.08260
C261        C  0.22513506  0.54261226  0.98945084     1.08240
O262        O  0.92644894  0.50842343  0.12925466    -0.81380
O263        O  0.03657973  0.38540633  0.21187566    -0.81400
O264        O  0.02015643  0.42591767  0.09200774    -0.81410
O265        O  0.94822582  0.47140384  0.23586949    -0.81350
O266        O  0.01957156  0.38443060  0.13772813    -0.81480
O267        O  0.93338813  0.45180465  0.18013103    -0.81400
O268        O  0.99581346  0.41376542  0.24831824    -0.81380
O269        O  0.95556915  0.45763643  0.11010270    -0.81420
C270        C  0.92872598  0.48121272  0.10669706     1.08310
C271        C  0.01373490  0.38499752  0.23866408     1.08190
C272        C  0.01843998  0.39171870  0.10317021     1.08330
C273        C  0.92408989  0.45764060  0.21360456     1.08210
O274        O  0.95935681  0.52827714  0.19601437    -0.81380
O275        O  0.08197307  0.43440609  0.12429157    -0.81460
O276        O  0.00562700  0.50372116  0.07641190    -0.81390
O277        O  0.05764000  0.46502416  0.24772944    -0.81370
O278        O  0.08941369  0.44328950  0.19902643    -0.81430
O279        O  0.99673918  0.53283862  0.12960709    -0.81390
O280        O  0.01222650  0.52125591  0.22617462    -0.81350
O281        O  0.06300515  0.49132823  0.12505580    -0.81420
Co282      Co  0.96824528  0.48908897  0.15664311     1.51530
Co283      Co  0.05290134  0.41562052  0.16911967     1.51690
Co284      Co  0.00960849  0.47421227  0.12173000     1.51570
Co285      Co  0.00431322  0.46714635  0.23422013     1.51470
O286        O  0.01208382  0.45707676  0.17637644    -1.43320
C287        C  0.98529413  0.54191821  0.21657114     1.08240
C288        C  0.08569378  0.46757259  0.11281980     1.08330
C289        C  0.00044006  0.53448162  0.09350575     1.08260
C290        C  0.08761369  0.45878302  0.23064503     1.08240
O291        O  0.97541606  0.40070225  0.99872296    -0.81380
O292        O  0.99449540  0.24961866  0.06429948    -0.81400
O293        O  0.93985122  0.27817651  0.95408453    -0.81410
O294        O  0.05124423  0.34503694  0.06800004    -0.81350
O295        O  0.94525771  0.25886156  0.01102226    -0.81480
O296        O  0.99091736  0.35326845  0.05610257    -0.81400
O297        O  0.05316539  0.26785006  0.07418641    -0.81380
O298        O  0.94201232  0.34879977  0.99126442    -0.81420
C299        C  0.94357723  0.38467652  0.99737142     1.08310
C300        C  0.02220219  0.25420124  0.08597095     1.08190
C301        C  0.92606314  0.26030415  0.98152655     1.08330
C302        C  0.01970203  0.36043791  0.07582157     1.08210
O303        O  0.04918179  0.38088827  0.00859429    -0.81380
O304        O  0.99995048  0.23296631  0.95447671    -0.81460
O305        O  0.96352973  0.34308661  0.91822332    -0.81390
O306        O  0.08250385  0.26536699  0.99565314    -0.81370
O307        O  0.04950737  0.21876451  0.01569463    -0.81430
O308        O  0.01392492  0.36436071  0.94654927    -0.81390
O309        O  0.08456998  0.33521221  0.99122589    -0.81350
O310        O  0.01597491  0.28809567  0.93061473    -0.81420
Co311      Co  0.00046966  0.35394445  0.00192895     1.51530
Co312      Co  0.99783721  0.24362615  0.01054061     1.51690
Co313      Co  0.98169243  0.31680672  0.96183121     1.51570
Co314      Co  0.06503340  0.30304533  0.03076210     1.51470
O315        O  0.01377950  0.29899572  0.00574153    -1.43320
C316        C  0.07984605  0.36919183  0.99535311     1.08240
C317        C  0.01296087  0.25296941  0.92770040     1.08330
C318        C  0.98981834  0.36718361  0.91981556     1.08260
C319        C  0.08075550  0.23190074  0.00477391     1.08240
O320        O  0.97547947  0.55165757  0.97885767    -0.81380
O321        O  0.01113201  0.70008935  0.93791296    -0.81400
O322        O  0.95492245  0.66589952  0.04642429    -0.81410
O323        O  0.06110144  0.60552435  0.92815634    -0.81350
O324        O  0.95938064  0.69031410  0.99027649    -0.81480
O325        O  0.99986806  0.60516071  0.93245783    -0.81400
O326        O  0.06962859  0.68213061  0.93052389    -0.81380
O327        O  0.95079387  0.60037129  0.00830964    -0.81420
C328        C  0.94684233  0.56843968  0.99123037     1.08310
C329        C  0.03937746  0.69598548  0.91724319     1.08190
C330        C  0.94005516  0.68260413  0.01858031     1.08330
C331        C  0.02880673  0.59518507  0.91514750     1.08210
O332        O  0.05345503  0.56335400  0.98190649    -0.81380
O333        O  0.01320201  0.71088056  0.04925944    -0.81460
O334        O  0.97834281  0.59801747  0.08129503    -0.81390
O335        O  0.09501709  0.67476824  0.01023193    -0.81370
O336        O  0.06648238  0.72496854  0.99205140    -0.81430
O337        O  0.01519758  0.57161421  0.03993411    -0.81390
O338        O  0.08935510  0.60507849  0.00835166    -0.81350
O339        O  0.03041774  0.65567719  0.07169206    -0.81420
Co340      Co  0.00575663  0.59426858  0.98636337     1.51530
Co341      Co  0.01286787  0.70301749  0.99255550     1.51690
Co342      Co  0.99528041  0.62749724  0.03867381     1.51570
Co343      Co  0.07615234  0.64216946  0.97083395     1.51470
O344        O  0.02497711  0.64679676  0.99448335    -1.43320
C345        C  0.08286304  0.57184594  0.00092791     1.08240
C346        C  0.02424165  0.69039177  0.07668604     1.08330
C347        C  0.99802949  0.57012101  0.07152316     1.08260
C348        C  0.09574810  0.70908694  0.00492800     1.08240
O349        O  0.59090608  0.83725926  0.98132235    -0.81380
O350        O  0.46665109  0.76874858  0.06568359    -0.81400
O351        O  0.51676277  0.87358992  0.03060434    -0.81410
O352        O  0.57589621  0.73077239  0.01151060    -0.81350
O353        O  0.49976197  0.83317820  0.07116196    -0.81480
O354        O  0.59147644  0.76295781  0.96136974    -0.81400
O355        O  0.51883663  0.73685839  0.05811067    -0.81380
O356        O  0.54437395  0.87399426  0.99935459    -0.81420
C357        C  0.58006553  0.86824536  0.99436800     1.08310
C358        C  0.49274041  0.74771501  0.07868811     1.08190
C359        C  0.51272072  0.86504008  0.06502647     1.08330
C360        C  0.59978692  0.74004710  0.98731710     1.08210
O361        O  0.51747825  0.77599786  0.92658441    -0.81380
O362        O  0.42894851  0.83895898  0.03477791    -0.81460
O363        O  0.47993712  0.87723005  0.95850080    -0.81390
O364        O  0.46533755  0.72612770  0.00062210    -0.81370
O365        O  0.44658749  0.78241440  0.98645151    -0.81430
O366        O  0.52868244  0.85008322  0.93219798    -0.81390
O367        O  0.52656400  0.72051416  0.94933897    -0.81350
O368        O  0.45385543  0.87249294  0.98826818    -0.81420
Co369      Co  0.55446629  0.80469287  0.95518784     1.51530
Co370      Co  0.47586592  0.80885947  0.02644997     1.51690
Co371      Co  0.49845283  0.83721234  0.98964404     1.51570
Co372      Co  0.52133734  0.73343551  0.00431620     1.51470
O373        O  0.52630030  0.79231551  0.00492130    -1.43320
C374        C  0.52166261  0.74177132  0.92145184     1.08240
C375        C  0.42623490  0.86643279  0.01109790     1.08330
C376        C  0.50343840  0.87532602  0.93188941     1.08260
C377        C  0.43908775  0.74810566  0.99159790     1.08240
O378        O  0.54653502  0.96950889  0.90346203    -0.81380
O379        O  0.52108288  0.03695012  0.76851041    -0.81400
O380        O  0.59384281  0.93833057  0.79182685    -0.81410
O381        O  0.50277023  0.04472405  0.86552184    -0.81350
O382        O  0.57858224  0.98992868  0.76133918    -0.81480
O383        O  0.51853161  0.00126735  0.90348223    -0.81400
O384        O  0.46797416  0.03985087  0.79952452    -0.81380
O385        O  0.59440519  0.95279895  0.86823994    -0.81420
C386        C  0.58208982  0.96322973  0.89978035     1.08310
C387        C  0.49211722  0.05496675  0.77767119     1.08190
C388        C  0.60244697  0.96596796  0.77104172     1.08330
C389        C  0.51245026  0.03594460  0.89815706     1.08210
O390        O  0.46015198  0.95746841  0.89730505    -0.81380
O391        O  0.52878420  0.92741790  0.74908972    -0.81460
O392        O  0.53245324  0.90302450  0.87891828    -0.81390
O393        O  0.45428236  0.95887029  0.81314171    -0.81370
O394        O  0.46897383  0.97767333  0.75705089    -0.81430
O395        O  0.48211801  0.93008718  0.90156067    -0.81390
O396        O  0.43362469  0.00647484  0.86909147    -0.81350
O397        O  0.52032319  0.90225287  0.80411905    -0.81420
Co398      Co  0.50333584  0.96222170  0.86366055     1.51530
Co399      Co  0.52468712  0.98245901  0.76345777     1.51690
Co400      Co  0.55772573  0.92946125  0.83369884     1.51570
Co401      Co  0.48075994  0.00048812  0.83922597     1.51470
O402        O  0.53141919  0.98075421  0.82211522    -1.43320
C403        C  0.43321181  0.98104501  0.89484080     1.08240
C404        C  0.51910671  0.89972081  0.76914613     1.08330
C405        C  0.50521495  0.90338410  0.90234057     1.08260
C406        C  0.44504936  0.96437657  0.77934905     1.08240
O407        O  0.48932490  0.04973698  0.95839392    -0.81380
O408        O  0.56459565  0.17878575  0.98712979    -0.81400
O409        O  0.46251507  0.14609458  0.90036494    -0.81410
O410        O  0.56819884  0.10406741  0.99031553    -0.81350
O411        O  0.50236304  0.18465848  0.93118970    -0.81480
O412        O  0.53960480  0.05537328  0.01299183    -0.81400
O413        O  0.58372540  0.15607206  0.04317399    -0.81380
O414        O  0.51323538  0.09706484  0.92774590    -0.81420
C415        C  0.50706375  0.06213423  0.93019010     1.08310
C416        C  0.59017617  0.17494220  0.01331127     1.08190
C417        C  0.48550661  0.17343079  0.90070849     1.08330
C418        C  0.56783395  0.06954545  0.99596602     1.08210
O419        O  0.47936666  0.08351250  0.06410230    -0.81380
O420        O  0.45350552  0.20244812  0.99542808    -0.81460
O421        O  0.43317256  0.08953511  0.94572155    -0.81390
O422        O  0.51187153  0.15567031  0.07013210    -0.81370
O423        O  0.51248529  0.20774715  0.04056492    -0.81430
O424        O  0.43132889  0.08101151  0.00654609    -0.81390
O425        O  0.53937107  0.09062603  0.07137688    -0.81350
O426        O  0.42752910  0.15621646  0.96540494    -0.81420
Co427      Co  0.48491290  0.07098363  0.01059061     1.51530
Co428      Co  0.50672848  0.18577699  0.98949699     1.51690
Co429      Co  0.47306155  0.12974221  0.94908901     1.51570
Co430      Co  0.53863252  0.13159646  0.02906164     1.51470
O431        O  0.49214579  0.12671932  0.00097993    -1.43320
C432        C  0.50789882  0.07821057  0.08419528     1.08240
C433        C  0.42444975  0.18530859  0.98450648     1.08330
C434        C  0.41654101  0.07703951  0.97465485     1.08260
C435        C  0.50914054  0.19028440  0.07063339     1.08240
O436        O  0.50062167  0.92259778  0.09732636    -0.81380
O437        O  0.45989926  0.97746763  0.24661577    -0.81400
O438        O  0.49281568  0.89650143  0.17896150    -0.81410
O439        O  0.43134545  0.96844831  0.12232219    -0.81350
O440        O  0.51183290  0.91856733  0.23388587    -0.81480
O441        O  0.47085845  0.99058817  0.08265679    -0.81400
O442        O  0.42922776  0.96237164  0.19560690    -0.81380
O443        O  0.54362944  0.88543771  0.12215025    -0.81420
C444        C  0.52009315  0.89210795  0.09591461     1.08310
C445        C  0.42913496  0.96946436  0.22999977     1.08190
C446        C  0.50002758  0.89146770  0.21342023     1.08330
C447        C  0.43854648  0.97820020  0.08948500     1.08210
O448        O  0.52927435  0.02967073  0.12501419    -0.81380
O449        O  0.56589626  0.97672030  0.21207842    -0.81460
O450        O  0.56946535  0.95695745  0.12110952    -0.81390
O451        O  0.45798096  0.03841780  0.20403557    -0.81370
O452        O  0.51635414  0.02970608  0.22242333    -0.81430
O453        O  0.53936225  0.97950947  0.07086425    -0.81390
O454        O  0.46942165  0.04314903  0.12747148    -0.81350
O455        O  0.57106506  0.92110130  0.18831480    -0.81420
Co456      Co  0.51500306  0.97682288  0.11549569     1.51530
Co457      Co  0.51288057  0.97510942  0.22521545     1.51690
Co458      Co  0.52780865  0.92834441  0.15056749     1.51570
Co459      Co  0.44954396  0.00108972  0.16273449     1.51470
O460        O  0.49870965  0.97324229  0.16895583    -1.43320
C461        C  0.50294249  0.05151104  0.11649023     1.08240
C462        C  0.58586021  0.94871109  0.20573910     1.08330
C463        C  0.56919352  0.96969016  0.08714743     1.08260
C464        C  0.48822691  0.05055942  0.21860021     1.08240
O465        O  0.38615160  0.91116466  0.98031711    -0.81380
O466        O  0.27936480  0.95065531  0.93574352    -0.81400
O467        O  0.30170779  0.89880624  0.04885622    -0.81410
O468        O  0.37261708  0.98148520  0.92589782    -0.81350
O469        O  0.27915369  0.90266135  0.99076585    -0.81480
O470        O  0.42529629  0.97327790  0.95776063    -0.81400
O471        O  0.29996756  0.00713087  0.92670206    -0.81380
O472        O  0.37866883  0.90291950  0.04149252    -0.81420
C473        C  0.39378256  0.89316447  0.01050679     1.08310
C474        C  0.28417900  0.97787012  0.91413106     1.08190
C475        C  0.28766982  0.88392431  0.01939687     1.08330
C476        C  0.40885171  0.97974747  0.92694112     1.08210
O477        O  0.38661170  0.02315647  0.99582901    -0.81380
O478        O  0.25234007  0.95458977  0.04398186    -0.81460
O479        O  0.37587534  0.98078775  0.06776609    -0.81390
O480        O  0.31130411  0.03651668  0.00263369    -0.81370
O481        O  0.25702780  0.01102217  0.98740134    -0.81430
O482        O  0.41772630  0.96295461  0.02839050    -0.81390
O483        O  0.36123332  0.05126240  0.94625802    -0.81350
O484        O  0.30196280  0.97883457  0.07018670    -0.81420
Co485      Co  0.38198488  0.96640898  0.98520149     1.51530
Co486      Co  0.27090526  0.95558893  0.98996718     1.51690
Co487      Co  0.33854953  0.94195296  0.05410389     1.51570
Co488      Co  0.34017071  0.00644768  0.96724475     1.51470
O489        O  0.32846757  0.96152445  0.00093222    -1.43320
C490        C  0.38617887  0.05025919  0.97192798     1.08240
C491        C  0.26880814  0.96778558  0.07281000     1.08330
C492        C  0.40971251  0.97481745  0.06034623     1.08260
C493        C  0.27653033  0.03945133  0.99741378     1.08240
O494        O  0.64035018  0.88733394  0.01836851    -0.81380
O495        O  0.70391360  0.01710412  0.93489181    -0.81400
O496        O  0.60194968  0.95932813  0.96536149    -0.81410
O497        O  0.74417496  0.90271807  0.98412191    -0.81350
O498        O  0.64004588  0.98391371  0.92707668    -0.81480
O499        O  0.71589440  0.89150448  0.03747243    -0.81400
O500        O  0.73532167  0.96358676  0.93750537    -0.81380
O501        O  0.60339679  0.93209592  0.99668613    -0.81420
C502        C  0.60913472  0.89721462  0.00396279     1.08310
C503        C  0.72451978  0.99219192  0.91945501     1.08190
C504        C  0.60883040  0.96880269  0.93176621     1.08330
C505        C  0.73561281  0.88047684  0.01038994     1.08210
O506        O  0.70201575  0.96226488  0.07283392    -0.81380
O507        O  0.62974709  0.04981041  0.96841706    -0.81460
O508        O  0.60098901  0.99373589  0.03769918    -0.81390
O509        O  0.74727903  0.01316794  0.99726114    -0.81370
O510        O  0.69129756  0.03041068  0.01522371    -0.81430
O511        O  0.62686201  0.94662442  0.06841898    -0.81390
O512        O  0.75639157  0.95244555  0.04711058    -0.81350
O513        O  0.59920648  0.01533912  0.00992480    -0.81420
Co514      Co  0.67295706  0.92518413  0.04355872     1.51530
Co515      Co  0.66441037  0.00403308  0.97355721     1.51690
Co516      Co  0.63911941  0.97754612  0.00597806     1.51570
Co517      Co  0.74162942  0.95781693  0.99161980     1.51470
O518        O  0.68344158  0.95216947  0.99216331    -1.43320
C519        C  0.73706296  0.95986301  0.07596007     1.08240
C520        C  0.60070619  0.04499893  0.98982997     1.08330
C521        C  0.60178331  0.97151757  0.06522823     1.08260
C522        C  0.72582393  0.03782915  0.01036342     1.08240
O523        O  0.01361551  0.89925420  0.52278825    -0.81380
O524        O  0.07604934  0.75258659  0.49943922    -0.81400
O525        O  0.96746546  0.77841075  0.55788305    -0.81410
O526        O  0.08014657  0.84226883  0.44642111    -0.81350
O527        O  0.02482456  0.75930629  0.55304284    -0.81480
O528        O  0.07105263  0.85181732  0.50714415    -0.81400
O529        O  0.07937573  0.76642480  0.43948169    -0.81380
O530        O  0.99995625  0.85074234  0.55795080    -0.81420
C531        C  0.00923301  0.88601017  0.55514101     1.08310
C532        C  0.09516642  0.75653343  0.47003021     1.08190
C533        C  0.99616816  0.76339527  0.57286193     1.08330
C534        C  0.09091576  0.85625032  0.47781176     1.08210
O535        O  0.02506179  0.88577300  0.45405818    -0.81380
O536        O  0.96571328  0.73244427  0.50044000    -0.81460
O537        O  0.92622149  0.83946893  0.53171852    -0.81390
O538        O  0.00189407  0.76923039  0.41289162    -0.81370
O539        O  0.02120985  0.72184904  0.44703976    -0.81430
O540        O  0.95927645  0.86299956  0.48460919    -0.81390
O541        O  0.00346633  0.84446495  0.41508660    -0.81350
O542        O  0.94151682  0.78567135  0.48103091    -0.81420
Co543      Co  0.01574044  0.85356403  0.49856127     1.51530
Co544      Co  0.02171005  0.74502682  0.49958324     1.51690
Co545      Co  0.97211144  0.81639959  0.51599576     1.51570
Co546      Co  0.03914206  0.80520179  0.43163521     1.51470
O547        O  0.01655547  0.80008319  0.48403639    -1.43320
C548        C  0.01099598  0.87810193  0.42266518     1.08240
C549        C  0.93851549  0.75078422  0.48585653     1.08330
C550        C  0.92841781  0.86113435  0.50347694     1.08260
C551        C  0.00770971  0.73476594  0.41638859     1.08240
O552        O  0.86466360  0.88060737  0.48697953    -0.81380
O553        O  0.81646143  0.01665813  0.55913228    -0.81400
O554        O  0.93242340  0.97157409  0.52951532    -0.81410
O555        O  0.77391286  0.90320826  0.51931097    -0.81350
O556        O  0.88270136  0.98149918  0.56271367    -0.81480
O557        O  0.78793498  0.88809258  0.46263016    -0.81400
O558        O  0.78917643  0.96184369  0.56202545    -0.81380
O559        O  0.91097177  0.92102855  0.48953076    -0.81420
C560        C  0.89919456  0.88822221  0.49356989     1.08310
C561        C  0.80003915  0.99151594  0.57812186     1.08190
C562        C  0.91854830  0.97669597  0.56126185     1.08330
C563        C  0.77573837  0.87901252  0.49402364     1.08210
O564        O  0.80643836  0.94765267  0.41868781    -0.81380
O565        O  0.87945584  0.04946119  0.52692037    -0.81460
O566        O  0.89792485  0.98430096  0.45683182    -0.81390
O567        O  0.76732996  0.01353076  0.50365892    -0.81370
O568        O  0.82086882  0.03314213  0.48005693    -0.81430
O569        O  0.87860973  0.93300036  0.42759133    -0.81390
O570        O  0.75511193  0.95492576  0.45353999    -0.81350
O571        O  0.90542780  0.01370867  0.48411681    -0.81420
Co572      Co  0.83440889  0.91560994  0.45290598     1.51530
Co573      Co  0.85136875  0.00458191  0.51699916     1.51690
Co574      Co  0.88380574  0.96445301  0.50788843     1.51570
Co575      Co  0.77472457  0.95800876  0.50866373     1.51470
O576        O  0.82988683  0.95673872  0.49332684    -1.43320
C577        C  0.77223090  0.95631777  0.42171413     1.08240
C578        C  0.90553935  0.04476065  0.50340274     1.08330
C579        C  0.89773650  0.96230688  0.42836940     1.08260
C580        C  0.78697263  0.03918076  0.48873851     1.08240
O581        O  0.12329205  0.91063740  0.50252587    -0.81380
O582        O  0.25750683  0.96521622  0.54203944    -0.81400
O583        O  0.19512414  0.90209291  0.50154952    -0.81410
O584        O  0.15299927  0.97536361  0.57630018    -0.81350
O585        O  0.24738793  0.92421044  0.47924730    -0.81480
O586        O  0.10415341  0.97300314  0.53764026    -0.81400
O587        O  0.22366419  0.00635484  0.57280447    -0.81380
O588        O  0.14065470  0.89046325  0.44779138    -0.81420
C589        C  0.12072196  0.88548491  0.47676912     1.08310
C590        C  0.25045854  0.98358467  0.57137969     1.08190
C591        C  0.22927258  0.89792311  0.49428506     1.08330
C592        C  0.11857692  0.96967095  0.57026488     1.08210
O593        O  0.12577285  0.02086094  0.47418535    -0.81380
O594        O  0.22953738  0.99021427  0.43740270    -0.81460
O595        O  0.13054719  0.96397401  0.42877718    -0.81390
O596        O  0.19651383  0.05609434  0.51719052    -0.81370
O597        O  0.25064810  0.03264233  0.49945477    -0.81430
O598        O  0.08065265  0.96002323  0.46363058    -0.81390
O599        O  0.12619652  0.03768469  0.53233801    -0.81350
O600        O  0.20206523  0.93586945  0.42621926    -0.81420
Co601      Co  0.12901917  0.96693109  0.48810815     1.51530
Co602      Co  0.24134120  0.97825836  0.49000962     1.51690
Co603      Co  0.16465582  0.93512743  0.46821395     1.51570
Co604      Co  0.17565929  0.01504175  0.54590557     1.51470
O605        O  0.18384569  0.97767332  0.50210288    -1.43320
C606        C  0.11333833  0.04144165  0.49964192     1.08240
C607        C  0.21986865  0.96468517  0.41469810     1.08330
C608        C  0.09422651  0.96469381  0.43118052     1.08260
C609        C  0.23016261  0.06008244  0.50767126     1.08240
O610        O  0.97094273  0.05973989  0.50406778    -0.81380
O611        O  0.01635876  0.20880714  0.45003645    -0.81400
O612        O  0.93168389  0.17840597  0.54076722    -0.81410
O613        O  0.05968369  0.10759160  0.42151131    -0.81350
O614        O  0.95231272  0.20700192  0.49096789    -0.81480
O615        O  0.00736588  0.08360259  0.44248152    -0.81400
O616        O  0.99906332  0.15336650  0.43320365    -0.81380
O617        O  0.93040158  0.10607442  0.50977605    -0.81420
C618        C  0.93718022  0.07183817  0.50314761     1.08310
C619        C  0.00514429  0.18682658  0.42495598     1.08190
C620        C  0.92558242  0.19823028  0.51239458     1.08330
C621        C  0.03292882  0.08471044  0.41690498     1.08210
O622        O  0.04792265  0.04440245  0.49085877    -0.81380
O623        O  0.99899631  0.21238852  0.55935764    -0.81460
O624        O  0.97685313  0.08556387  0.57026287    -0.81390
O625        O  0.07439274  0.16974323  0.46449815    -0.81370
O626        O  0.06184166  0.20207137  0.51527125    -0.81430
O627        O  0.03505038  0.08279051  0.55484897    -0.81390
O628        O  0.07803588  0.09849917  0.49466718    -0.81350
O629        O  0.99113201  0.15776725  0.58793009    -0.81420
Co630      Co  0.01991438  0.08889501  0.49960345     1.51530
Co631      Co  0.00703985  0.20240892  0.50464954     1.51690
Co632      Co  0.96139648  0.13291764  0.54794524     1.51570
Co633      Co  0.03652465  0.12811812  0.46611890     1.51470
O634        O  0.00359758  0.14346319  0.50958458    -1.43320
C635        C  0.07879121  0.06229601  0.49380882     1.08240
C636        C  0.99940899  0.19222298  0.58867310     1.08330
C637        C  0.00925495  0.07425306  0.57738865     1.08260
C638        C  0.08460772  0.19281005  0.48974979     1.08240
O639        O  0.00584657  0.94266869  0.40428494    -0.81380
O640        O  0.06620975  0.96159736  0.26173689    -0.81400
O641        O  0.95849938  0.90301083  0.30057301    -0.81410
O642        O  0.08044079  0.98413597  0.36725783    -0.81350
O643        O  0.01091223  0.90781613  0.26763780    -0.81480
O644        O  0.03254460  0.97139351  0.40374352    -0.81400
O645        O  0.07992462  0.01293589  0.29513252    -0.81380
O646        O  0.99213507  0.90080279  0.36350177    -0.81420
C647        C  0.00268345  0.90798666  0.39599770     1.08310
C648        C  0.08932314  0.98615298  0.27336483     1.08190
C649        C  0.98380449  0.88806205  0.27987849     1.08330
C650        C  0.06856513  0.97382687  0.39903476     1.08210
O651        O  0.00671220  0.03174857  0.38784205    -0.81380
O652        O  0.95531391  0.96304163  0.25705685    -0.81460
O653        O  0.92552397  0.94029994  0.37204835    -0.81390
O654        O  0.00355251  0.03946340  0.30823956    -0.81370
O655        O  0.01264941  0.01772348  0.25167526    -0.81430
O656        O  0.95060720  0.98957033  0.40158038    -0.81390
O657        O  0.05684630  0.05625733  0.36030676    -0.81350
O658        O  0.94215382  0.98445282  0.31230114    -0.81420
Co659      Co  0.98936621  0.98183208  0.36515240     1.51530
Co660      Co  0.01163616  0.96284963  0.26297784     1.51690
Co661      Co  0.96984860  0.94438142  0.33866068     1.51570
Co662      Co  0.04189052  0.01010150  0.33601372     1.51470
O663        O  0.01910195  0.96354517  0.32043140    -1.43320
C664        C  0.03206163  0.05739357  0.38593125     1.08240
C665        C  0.93161932  0.97642897  0.27944223     1.08330
C666        C  0.92479013  0.96514306  0.39870389     1.08260
C667        C  0.00345422  0.04412771  0.27314246     1.08240
O668        O  0.02518337  0.94580219  0.57412121    -0.81380
O669        O  0.96828492  0.98513787  0.75160775    -0.81400
O670        O  0.05878303  0.91304691  0.69034582    -0.81410
O671        O  0.93493347  0.97608163  0.62716505    -0.81350
O672        O  0.01477096  0.92481385  0.73246596    -0.81480
O673        O  0.97838408  0.98480432  0.58676514    -0.81400
O674        O  0.93350638  0.97612165  0.70122565    -0.81380
O675        O  0.01829757  0.90935844  0.62165686    -0.81420
C676        C  0.01781340  0.91337679  0.58549652     1.08310
C677        C  0.93707803  0.97789341  0.73625196     1.08190
C678        C  0.03704088  0.90220053  0.71640769     1.08330
C679        C  0.94451859  0.97899555  0.59346677     1.08210
O680        O  0.03552249  0.01970328  0.60782743    -0.81380
O681        O  0.07602317  0.97351019  0.73255073    -0.81460
O682        O  0.09240069  0.93588948  0.62119409    -0.81390
O683        O  0.97251946  0.04718117  0.70487612    -0.81370
O684        O  0.02664891  0.03569158  0.73396130    -0.81430
O685        O  0.06699176  0.98967692  0.60474123    -0.81390
O686        O  0.98234317  0.04453433  0.62877262    -0.81350
O687        O  0.08710511  0.98779685  0.67479120    -0.81420
Co688      Co  0.01783012  0.96786317  0.62194690     1.51530
Co689      Co  0.02061460  0.97990363  0.73268047     1.51690
Co690      Co  0.05003247  0.95172926  0.65092996     1.51570
Co691      Co  0.95941272  0.00904655  0.66619610     1.51470
O692        O  0.00798596  0.98125882  0.67537541    -1.43320
C693        C  0.01161569  0.04631470  0.60811529     1.08240
C694        C  0.09917378  0.98170684  0.70760665     1.08330
C695        C  0.09330933  0.96536503  0.60102152     1.08260
C696        C  0.00046096  0.05816439  0.72443225     1.08240
C697        C  0.00046825  0.23015507  0.24325167    -0.00680
C698        C  0.99796564  0.19982406  0.26631837    -0.00680
C699        C  0.74525363  0.97101056  0.23452362    -0.00680
C700        C  0.76935093  0.97041185  0.26522844    -0.00680
C701        C  0.99983504  0.70149769  0.23312853    -0.00680
C702        C  0.99459294  0.72587178  0.26248354    -0.00680
C703        C  0.27251812  0.97217284  0.23102458    -0.00680
C704        C  0.24559179  0.97365305  0.25766466    -0.00680
C705        C  0.24161545  0.21712433  0.50514983    -0.00680
C706        C  0.27042039  0.24052917  0.49558884    -0.00680
C707        C  0.74080036  0.22381564  0.49283147    -0.00680
C708        C  0.76625301  0.19654361  0.48392404    -0.00680
C709        C  0.28092631  0.71630936  0.49095875    -0.00680
C710        C  0.25546332  0.74448164  0.48809091    -0.00680
C711        C  0.26173124  0.97695918  0.72484279    -0.00680
C712        C  0.28544168  0.97175493  0.75499826    -0.00680
C713        C  0.23842279  0.22319261  0.01412400    -0.00680
C714        C  0.26576562  0.19680771  0.00970100    -0.00680
C715        C  0.25181028  0.70117625  0.00115274    -0.00680
C716        C  0.28133060  0.72553262  0.00674564    -0.00680
C717        C  0.52140535  0.70758651  0.26179314    -0.00680
C718        C  0.51069743  0.73301239  0.23514086    -0.00680
C719        C  0.49912440  0.23520632  0.25059092    -0.00680
C720        C  0.49403212  0.20895630  0.22377945    -0.00680
C721        C  0.50714177  0.24015307  0.72559914    -0.00680
C722        C  0.49944320  0.21273193  0.75127182    -0.00680
C723        C  0.00706544  0.24424985  0.77126770    -0.00680
C724        C  0.01045733  0.21892804  0.74261688    -0.00680
C725        C  0.77299127  0.22239467  0.00668436    -0.00680
C726        C  0.74755641  0.19533176  0.01675289    -0.00680
C727        C  0.26852139  0.46414548  0.26187025    -0.00680
C728        C  0.23942252  0.46389470  0.23713559    -0.00680
C729        C  0.76428239  0.46714801  0.23590675    -0.00680
C730        C  0.73977953  0.47090134  0.26538196    -0.00680
C731        C  0.28150515  0.46031996  0.73435061    -0.00680
C732        C  0.25297816  0.45660331  0.75984492    -0.00680
C733        C  0.01829380  0.71837767  0.75842879    -0.00680
C734        C  0.01023902  0.74607073  0.73323354    -0.00680
C735        C  0.78627835  0.98597380  0.74066746    -0.00680
C736        C  0.75804668  0.99769626  0.76341689    -0.00680
C737        C  0.78226130  0.69732537  0.02525819    -0.00680
C738        C  0.75443405  0.72246428  0.01888139    -0.00680
C739        C  0.75575311  0.47394801  0.73383734    -0.00680
C740        C  0.78180297  0.47630746  0.76165541    -0.00680
C741        C  0.75404090  0.69550102  0.47532215    -0.00680
C742        C  0.78158847  0.72193720  0.48144598    -0.00680
C743        C  0.49684120  0.71454084  0.73916049    -0.00680
C744        C  0.50202604  0.74302092  0.76424633    -0.00680
C745        C  0.90282656  0.97392500  0.75814480    -0.07370
C746        C  0.88129509  0.94195552  0.75055493    -0.18500
C747        C  0.84226403  0.94377239  0.74948226     0.09830
C748        C  0.82445364  0.97836155  0.75620691    -0.07290
C749        C  0.84593400  0.00834448  0.77047020    -0.18530
C750        C  0.88512405  0.00619211  0.77205563     0.09860
S751        S  0.81759288  0.90196763  0.73535065    -0.33490
S752        S  0.91107004  0.04744149  0.78594387    -0.33500
H753        H  0.94193867  0.02769446  0.80070175     0.27870
H754        H  0.78502273  0.91012012  0.75535822     0.27870
H755        H  0.89495625  0.91680603  0.74066121     0.18460
H756        H  0.83262930  0.03473534  0.77669147     0.18460
C757        C  0.00125275  0.09872273  0.73556898    -0.07370
C758        C  0.03376479  0.11457785  0.75233970    -0.18500
C759        C  0.03726264  0.15356272  0.75827802     0.09830
C760        C  0.00705280  0.17743520  0.74832315    -0.07290
C761        C  0.97402152  0.16123155  0.73395742    -0.18530
C762        C  0.97057190  0.12302579  0.72742046     0.09860
S763        S  0.08164885  0.17055591  0.77669832    -0.33490
S764        S  0.92629775  0.10870382  0.70651936    -0.33500
H765        H  0.94218089  0.10483489  0.67063126     0.27870
H766        H  0.07813463  0.20816811  0.76603359     0.27870
H767        H  0.05746367  0.09680888  0.75910235     0.18460
H768        H  0.95096088  0.17911925  0.72543695     0.18460
C769        C  0.14018935  0.98219471  0.71679966    -0.07370
C770        C  0.16234220  0.01181579  0.70374256    -0.18500
C771        C  0.20120448  0.01296986  0.71061513     0.09830
C772        C  0.21973479  0.98204433  0.72778537    -0.07290
C773        C  0.19730540  0.95302253  0.74218629    -0.18530
C774        C  0.15792329  0.95349994  0.73816217     0.09860
S775        S  0.22465466  0.05613463  0.69908630    -0.33490
S776        S  0.13217940  0.91556244  0.75927920    -0.33500
H777        H  0.11195113  0.93934693  0.78307464     0.27870
H778        H  0.24937174  0.05405543  0.72984168     0.27870
H779        H  0.14904498  0.03495070  0.68912800     0.18460
H780        H  0.21055645  0.92934061  0.75586805     0.18460
C781        C  0.03704148  0.86218152  0.72788226    -0.07370
C782        C  0.01018432  0.85020767  0.75422850    -0.18500
C783        C  0.00258725  0.81209646  0.76016861     0.09830
C784        C  0.02327209  0.78518987  0.74024157    -0.07290
C785        C  0.05372955  0.79715509  0.71846516    -0.18530
C786        C  0.06015981  0.83484425  0.71089325     0.09860
S787        S  0.96502493  0.79909965  0.79122711    -0.33490
S788        S  0.09524722  0.84445005  0.67574634    -0.33500
H789        H  0.11428790  0.87154310  0.69718718     0.27870
H790        H  0.95727775  0.83510010  0.80498521     0.27870
H791        H  0.99307965  0.87073468  0.76827921     0.18460
H792        H  0.07072207  0.77662868  0.70418450     0.18460
C793        C  0.12837743  0.98296792  0.26135594    -0.07370
C794        C  0.14974294  0.01573736  0.25793442    -0.18500
C795        C  0.18819840  0.01414291  0.25162447     0.09830
C796        C  0.20555416  0.97872693  0.24801406    -0.07290
C797        C  0.18331127  0.94642441  0.24621462    -0.18530
C798        C  0.14524045  0.94781564  0.25441617     0.09860
S799        S  0.21277622  0.05855473  0.25018302    -0.33490
S800        S  0.12166926  0.90332809  0.26058631    -0.33500
H801        H  0.10630484  0.91289784  0.29558946     0.27870
H802        H  0.24856238  0.04479411  0.24261907     0.27870
H803        H  0.13668242  0.04279171  0.26180095     0.18460
H804        H  0.19632745  0.91943031  0.24251680     0.18460
C805        C  0.99149235  0.76783126  0.25845381    -0.07370
C806        C  0.95665688  0.78414359  0.26732085    -0.18500
C807        C  0.95256625  0.82277541  0.27363199     0.09830
C808        C  0.98399554  0.84692875  0.27041357    -0.07290
C809        C  0.01820876  0.83100218  0.25860146    -0.18530
C810        C  0.02252890  0.79227809  0.25307246     0.09860
S811        S  0.90645264  0.83907006  0.28575373    -0.33490
S812        S  0.06889148  0.77719584  0.23992095    -0.33500
H813        H  0.06518334  0.73967296  0.24975811     0.27870
H814        H  0.90788878  0.87011373  0.26138298     0.27870
H815        H  0.93209853  0.76657410  0.27001920     0.18460
H816        H  0.04277212  0.84873476  0.25514884     0.18460
C817        C  0.89092935  0.97372097  0.27057383    -0.07370
C818        C  0.87078387  0.94490762  0.28817050    -0.18500
C819        C  0.83187539  0.94066616  0.28298762     0.09830
C820        C  0.81160208  0.96726939  0.26135678    -0.07290
C821        C  0.83244310  0.99441627  0.24138153    -0.18530
C822        C  0.87178474  0.99755871  0.24528721     0.09860
S823        S  0.80903187  0.89989965  0.30273474    -0.33490
S824        S  0.89510484  0.03427101  0.21935393    -0.33500
H825        H  0.93121357  0.01871552  0.21952018     0.27870
H826        H  0.83941248  0.88756903  0.32504638     0.27870
H827        H  0.88581567  0.92535035  0.30595419     0.18460
H828        H  0.81822503  0.01459149  0.22395861     0.18460
C829        C  0.99401392  0.08164498  0.25823568    -0.07370
C830        C  0.96407846  0.10057926  0.27471911    -0.18500
C831        C  0.96093780  0.13946473  0.27198109     0.09830
C832        C  0.98924096  0.16054520  0.25347176    -0.07290
C833        C  0.01568898  0.14086433  0.23207384    -0.18530
C834        C  0.01837039  0.10172260  0.23426868     0.09860
S835        S  0.92181414  0.16037555  0.29586876    -0.33490
S836        S  0.05738931  0.07996500  0.21120168    -0.33500
H837        H  0.03501684  0.05171687  0.19468966     0.27870
H838        H  0.92364310  0.19512811  0.27758701     0.27870
H839        H  0.94435714  0.08520379  0.29205674     0.18460
H840        H  0.03750289  0.15574995  0.21738460     0.18460
C841        C  0.00743753  0.20992667  0.62516034    -0.07370
C842        C  0.97869987  0.23006688  0.64237140    -0.18500
C843        C  0.98090714  0.23936015  0.68067809     0.09830
C844        C  0.01303865  0.22893907  0.70190184    -0.07290
C845        C  0.04389645  0.21374973  0.68283997    -0.18530
C846        C  0.04115278  0.20334822  0.64505784     0.09860
S847        S  0.94052919  0.25968926  0.70271432    -0.33490
S848        S  0.08012501  0.17846945  0.62504460    -0.33500
H849        H  0.07274179  0.18872178  0.58760716     0.27870
H850        H  0.91941252  0.26607467  0.66969365     0.27870
H851        H  0.95313433  0.23549789  0.62660678     0.18460
H852        H  0.06879150  0.20573722  0.69857390     0.18460
C853        C  0.88593028  0.20929546  0.50513642    -0.07370
C854        C  0.87248517  0.21218286  0.46812450    -0.18500
C855        C  0.83363540  0.21164696  0.45998782     0.09830
C856        C  0.80754991  0.20529377  0.48931783    -0.07290
C857        C  0.82122976  0.20570775  0.52643309    -0.18530
C858        C  0.85949505  0.20943590  0.53465001     0.09860
S859        S  0.81916316  0.21952043  0.41220517    -0.33490
S860        S  0.87269234  0.21386089  0.58358684    -0.33500
H861        H  0.90457394  0.23622567  0.57645501     0.27870
H862        H  0.85180872  0.23911597  0.40142113     0.27870
H863        H  0.89232922  0.21274022  0.44532000     0.18460
H864        H  0.80201810  0.20264929  0.54952131     0.18460
C865        C  0.20123031  0.22578886  0.49686393    -0.07370
C866        C  0.18674019  0.20945261  0.46385223    -0.18500
C867        C  0.14849405  0.20207036  0.45899166     0.09830
C868        C  0.12347778  0.20881839  0.48898037    -0.07290
C869        C  0.13703390  0.22943509  0.51999150    -0.18530
C870        C  0.17529457  0.23890784  0.52383358     0.09860
S871        S  0.13432857  0.18332440  0.41395323    -0.33490
S872        S  0.18782783  0.26753887  0.56377658    -0.33500
H873        H  0.22645071  0.26715985  0.55857840     0.27870
H874        H  0.10274538  0.20673235  0.41083455     0.27870
H875        H  0.20579085  0.19978064  0.44243896     0.18460
H876        H  0.11797994  0.23715604  0.54221808     0.18460
C877        C  0.00509365  0.20392932  0.30722838    -0.07370
C878        C  0.97952779  0.22406497  0.32914421    -0.18500
C879        C  0.98023682  0.22140531  0.36827686     0.09830
C880        C  0.00655687  0.19753270  0.38556135    -0.07290
C881        C  0.03399298  0.18016353  0.36405625    -0.18530
C882        C  0.03402262  0.18345005  0.32526303     0.09860
S883        S  0.94481231  0.24618402  0.39387378    -0.33490
S884        S  0.07153851  0.16003744  0.30112165    -0.33500
H885        H  0.07107776  0.18312554  0.26924980     0.27870
H886        H  0.96683756  0.25260320  0.42619136     0.27870
H887        H  0.95728206  0.23989328  0.31580167     0.18460
H888        H  0.05523115  0.16312627  0.37757513     0.18460
C889        C  0.27144022  0.97751194  0.60674605    -0.07370
C890        C  0.26535326  0.94344729  0.62503720    -0.18500
C891        C  0.26645826  0.94114206  0.66418194     0.09830
C892        C  0.27563403  0.97332938  0.68560723    -0.07290
C893        C  0.28928464  0.00514830  0.66691194    -0.18530
C894        C  0.28599257  0.00807212  0.62767546     0.09860
S895        S  0.25138525  0.89755832  0.68485423    -0.33490
S896        S  0.29632305  0.05277180  0.60633835    -0.33500
H897        H  0.30027830  0.03902523  0.56956301     0.27870
H898        H  0.27047224  0.90313666  0.71889885     0.27870
H899        H  0.25500079  0.91976131  0.60928770     0.18460
H900        H  0.29822835  0.02936651  0.68304127     0.18460
C901        C  0.24535804  0.09809773  0.51021566    -0.07370
C902        C  0.23460869  0.11824110  0.54197839    -0.18500
C903        C  0.23584414  0.15697828  0.54251488     0.09830
C904        C  0.24886572  0.17649090  0.51053415    -0.07290
C905        C  0.26329657  0.15595266  0.48015561    -0.18530
C906        C  0.26262797  0.11687485  0.48017796     0.09860
S907        S  0.21702336  0.17867468  0.58380841    -0.33490
S908        S  0.28104858  0.09305847  0.44000983    -0.33500
H909        H  0.29905227  0.06512189  0.46129403     0.27870
H910        H  0.23997808  0.21037447  0.58224304     0.27870
H911        H  0.22236639  0.10360533  0.56571279     0.18460
H912        H  0.27289574  0.17035292  0.45519293     0.18460
C913        C  0.24617994  0.86086837  0.49670778    -0.07370
C914        C  0.26007662  0.84641258  0.46321696    -0.18500
C915        C  0.26795302  0.80853875  0.45968469     0.09830
C916        C  0.26521563  0.78482920  0.49173949    -0.07290
C917        C  0.25770211  0.80123251  0.52668996    -0.18530
C918        C  0.24569489  0.83826787  0.52922667     0.09860
S919        S  0.27735228  0.79344285  0.41232181    -0.33490
S920        S  0.22775157  0.85310355  0.57406328    -0.33500
H921        H  0.21999654  0.89040041  0.56499871     0.27870
H922        H  0.27996601  0.75560878  0.42042779     0.27870
H923        H  0.26087207  0.86398765  0.43830890     0.18460
H924        H  0.25692204  0.78417321  0.55170024     0.18460
C925        C  0.23169484  0.96729770  0.37509831    -0.07370
C926        C  0.23759517  0.93411462  0.35514468    -0.18500
C927        C  0.24698593  0.93477722  0.31712720     0.09830
C928        C  0.25272104  0.96968042  0.29874897    -0.07290
C929        C  0.25137859  0.00250051  0.32014517    -0.18530
C930        C  0.23834800  0.00193793  0.35699840     0.09860
S931        S  0.24894647  0.88974936  0.29420988    -0.33490
S932        S  0.22509021  0.04629011  0.37668800    -0.33500
H933        H  0.19155225  0.03276238  0.39262363     0.27870
H934        H  0.25957883  0.90241386  0.25878001     0.27870
H935        H  0.23340813  0.90730080  0.36886908     0.18460
H936        H  0.25605135  0.02926526  0.30682889     0.18460
C937        C  0.75696951  0.15556056  0.48218425    -0.07370
C938        C  0.75315780  0.13598065  0.51611165    -0.18500
C939        C  0.75880432  0.09723623  0.51810088     0.09830
C940        C  0.77169921  0.07763168  0.48609805    -0.07290
C941        C  0.77272293  0.09642167  0.45168628    -0.18530
C942        C  0.76337203  0.13437634  0.44917017     0.09860
S943        S  0.75198314  0.07542487  0.56312288    -0.33490
S944        S  0.75656517  0.15286655  0.40282719    -0.33500
H945        H  0.72048989  0.16610223  0.41133103     0.27870
H946        H  0.72737755  0.04779024  0.54893335     0.27870
H947        H  0.74763021  0.15101793  0.54171888     0.18460
H948        H  0.78019662  0.08126993  0.42649030     0.18460
C949        C  0.75376355  0.96742653  0.38557451    -0.07370
C950        C  0.76853852  0.99956857  0.36825794    -0.18500
C951        C  0.77007477  0.00300391  0.32888494     0.09830
C952        C  0.75589633  0.97389053  0.30552155    -0.07290
C953        C  0.73580369  0.94451517  0.32285285    -0.18530
C954        C  0.73517365  0.94071074  0.36244436     0.09860
S955        S  0.79292957  0.04368216  0.30890613    -0.33490
S956        S  0.71512219  0.89842832  0.38157686    -0.33500
H957        H  0.70790632  0.91335329  0.41729420     0.27870
H958        H  0.79704250  0.06402754  0.34254706     0.27870
H959        H  0.78301186  0.02005275  0.38565545     0.18460
H960        H  0.72441528  0.92207242  0.30567479     0.18460
C961        C  0.79301135  0.99534457  0.61918650    -0.07370
C962        C  0.76771293  0.96966874  0.63523183    -0.18500
C963        C  0.76404140  0.96562285  0.67410915     0.09830
C964        C  0.78426472  0.98995988  0.69855306    -0.07290
C965        C  0.80775682  0.01743427  0.68233758    -0.18530
C966        C  0.81293011  0.02001388  0.64338660     0.09860
S967        S  0.73752629  0.92561783  0.68998139    -0.33490
S968        S  0.84821917  0.05254930  0.62730168    -0.33500
H969        H  0.82346540  0.07156147  0.60305751     0.27870
H970        H  0.71540851  0.92058765  0.65734100     0.27870
H971        H  0.75241046  0.95046350  0.61711925     0.18460
H972        H  0.82368334  0.03622377  0.70040975     0.18460
C973        C  0.76476722  0.83962889  0.49902144    -0.07370
C974        C  0.74879287  0.82212854  0.46728444    -0.18500
C975        C  0.75351696  0.78393524  0.46081589     0.09830
C976        C  0.77187694  0.76195777  0.48827609    -0.07290
C977        C  0.78440772  0.77895653  0.52186120    -0.18530
C978        C  0.78092565  0.81746915  0.52758541     0.09860
S979        S  0.74175990  0.76545129  0.41494703    -0.33490
S980        S  0.80215684  0.83724067  0.56929742    -0.33500
H981        H  0.77222149  0.86180826  0.57602711     0.27870
H982        H  0.72052786  0.79615824  0.40225087     0.27870
H983        H  0.73687909  0.83938082  0.44516708     0.18460
H984        H  0.79885882  0.76263665  0.54303920     0.18460
C985        C  0.13608970  0.74827105  0.47217451    -0.07370
C986        C  0.15100490  0.73778785  0.50738759    -0.18500
C987        C  0.18952554  0.73377522  0.51347041     0.09830
C988        C  0.21440519  0.73720021  0.48271870    -0.07290
C989        C  0.19909911  0.74359101  0.44678769    -0.18530
C990        C  0.16099329  0.75153460  0.44151552     0.09860
S991        S  0.20353457  0.72737639  0.56202810    -0.33490
S992        S  0.14772289  0.76988099  0.39616635    -0.33500
H993        H  0.13426148  0.80355288  0.41124782     0.27870
H994        H  0.24202469  0.72381262  0.55658253     0.27870
H995        H  0.13274088  0.73494824  0.53144539     0.18460
H996        H  0.21733060  0.74586066  0.42288772     0.18460
C997        C  0.00343381  0.71204651  0.38177406    -0.07370
C998        C  0.96767842  0.70974147  0.36477385    -0.18500
C999        C  0.96335089  0.70857688  0.32543843     0.09830
C1000       C  0.99553813  0.71202048  0.30245666    -0.07290
C1001       C  0.03103900  0.70853129  0.31977601    -0.18530
C1002       C  0.03505448  0.70684583  0.35889324     0.09860
S1003       S  0.91625985  0.70282287  0.30711742    -0.33490
S1004       S  0.08166330  0.70140886  0.37801013    -0.33500
H1005       H  0.06996117  0.68469864  0.41176562     0.27870
H1006       H  0.92647563  0.69606535  0.26985204     0.27870
H1007       H  0.94292102  0.71101347  0.38211677     0.18460
H1008       H  0.05614362  0.70849084  0.30292159     0.18460
C1009       C  0.99693289  0.75175826  0.61340726    -0.07370
C1010       C  0.96756880  0.76298321  0.63685791    -0.18500
C1011       C  0.96892907  0.75660394  0.67575721     0.09830
C1012       C  0.00031267  0.73879956  0.69258196    -0.07290
C1013       C  0.02780315  0.72423398  0.66879323    -0.18530
C1014       C  0.02677732  0.73069880  0.62986799     0.09860
S1015       S  0.93015581  0.77289160  0.70297849    -0.33490
S1016       S  0.06571853  0.71271124  0.60358372    -0.33500
H1017       H  0.08126242  0.74862811  0.59792918     0.27870
H1018       H  0.92220920  0.73669801  0.71638821     0.27870
H1019       H  0.94383714  0.77803654  0.62511428     0.18460
H1020       H  0.05226862  0.71084289  0.68085288     0.18460
C1021       C  0.82296510  0.71533007  0.47790571    -0.07370
C1022       C  0.83998248  0.73306253  0.44714661    -0.18500
C1023       C  0.87803305  0.74324527  0.44763048     0.09830
C1024       C  0.90119176  0.73292433  0.47856624    -0.07290
C1025       C  0.88532399  0.71090417  0.50718286    -0.18530
C1026       C  0.84643169  0.70340181  0.50810756     0.09860
S1027       S  0.89347925  0.77260700  0.40933635    -0.33490
S1028       S  0.82904424  0.68211340  0.55053031    -0.33500
H1029       H  0.79437297  0.70040934  0.55092388     0.27870
H1030       H  0.93189553  0.76635286  0.41401836     0.27870
H1031       H  0.82248183  0.74285469  0.42408616     0.18460
H1032       H  0.90252008  0.70321727  0.53128509     0.18460
C1033       C  0.74063033  0.07652916  0.01583875    -0.07370
C1034       C  0.73081195  0.09623653  0.04811163    -0.18500
C1035       C  0.73962038  0.13430610  0.05193095     0.09830
C1036       C  0.75583564  0.15446794  0.02158346    -0.07290
C1037       C  0.76855445  0.13408180  0.99065682    -0.18530
C1038       C  0.76220475  0.09533723  0.98803453     0.09860
S1039       S  0.72843492  0.15569544  0.09609100    -0.33490
S1040       S  0.77892137  0.07258607  0.94644507    -0.33500
H1041       H  0.80101359  0.04693704  0.96684687     0.27870
H1042       H  0.75534801  0.18443324  0.09284855     0.27870
H1043       H  0.71590406  0.08193551  0.07042534     0.18460
H1044       H  0.78089329  0.14874961  0.96707234     0.18460
C1045       C  0.76134527  0.76335870  0.02069385    -0.07370
C1046       C  0.77387841  0.78258170  0.98852444    -0.18500
C1047       C  0.76728521  0.82115128  0.98398245     0.09830
C1048       C  0.74869102  0.84100854  0.01269181    -0.07290
C1049       C  0.73961750  0.82171083  0.04594600    -0.18530
C1050       C  0.74550851  0.78382865  0.05023926     0.09860
S1051       S  0.78006294  0.84217533  0.93998846    -0.33490
S1052       S  0.72902403  0.76350083  0.09352167    -0.33500
H1053       H  0.75208211  0.73209086  0.09243644     0.27870
H1054       H  0.74291687  0.85322806  0.93204520     0.27870
H1055       H  0.78566814  0.76688051  0.96546956     0.18460
H1056       H  0.72570798  0.83564985  0.06885642     0.18460
C1057       C  0.73732072  0.99532392  0.87993910    -0.07370
C1058       C  0.73951323  0.03034602  0.86206356    -0.18500
C1059       C  0.75201150  0.03340189  0.82481439     0.09830
C1060       C  0.76310208  0.00094824  0.80511964    -0.07290
C1061       C  0.76598059  0.96728470  0.82494484    -0.18530
C1062       C  0.75020651  0.96333073  0.86028924     0.09860
S1063       S  0.75415702  0.07950094  0.80441572    -0.33490
S1064       S  0.74202630  0.91566930  0.87521934    -0.33500
H1065       H  0.70504002  0.92239514  0.88718504     0.27870
H1066       H  0.77666741  0.06975718  0.77377509     0.27870
H1067       H  0.73096819  0.05532750  0.87684287     0.18460
H1068       H  0.77509788  0.94234313  0.81059793     0.18460
C1069       C  0.75851404  0.97090133  0.19430169    -0.07370
C1070       C  0.76357781  0.93608610  0.17674384    -0.18500
C1071       C  0.76140048  0.93222744  0.13738906     0.09830
C1072       C  0.75387137  0.96377183  0.11439387    -0.07290
C1073       C  0.75287684  0.99901566  0.13156193    -0.18530
C1074       C  0.75573744  0.00307607  0.17082081     0.09860
S1075       S  0.76416159  0.88561520  0.11873917    -0.33490
S1076       S  0.75412350  0.05037382  0.18825445    -0.33500
H1077       H  0.76309251  0.04249548  0.22581540     0.27870
H1078       H  0.78107798  0.89646133  0.08486787     0.27870
H1079       H  0.76626843  0.91116818  0.19395071     0.18460
H1080       H  0.74750445  0.02352781  0.11435039     0.18460
C1081       C  0.28173789  0.84370305  0.01655581    -0.07370
C1082       C  0.29469632  0.82698904  0.98367071    -0.18500
C1083       C  0.29094349  0.78890331  0.97775629     0.09830
C1084       C  0.27447923  0.76641769  0.00597754    -0.07290
C1085       C  0.25856574  0.78361072  0.03757344    -0.18530
C1086       C  0.26216223  0.82217813  0.04324706     0.09860
S1087       S  0.30930436  0.77147333  0.93401278    -0.33490
S1088       S  0.24180933  0.84192291  0.08490492    -0.33500
H1089       H  0.23280504  0.87667351  0.06863461     0.27870
H1090       H  0.29074998  0.73679399  0.93429912     0.27870
H1091       H  0.30868070  0.84381925  0.96249763     0.18460
H1092       H  0.24555919  0.76670329  0.05917337     0.18460
C1093       C  0.26096689  0.07769592  0.99857531    -0.07370
C1094       C  0.25264047  0.09349285  0.03351872    -0.18500
C1095       C  0.25004286  0.13258132  0.03791712     0.09830
C1096       C  0.25621601  0.15623974  0.00661190    -0.07290
C1097       C  0.26194717  0.14018118  0.97149974    -0.18530
C1098       C  0.26494432  0.10181272  0.96727263     0.09860
S1099       S  0.24306173  0.15157657  0.08410675    -0.33490
S1100       S  0.27786376  0.08617319  0.92160873    -0.33500
H1101       H  0.25346544  0.05605529  0.92637159     0.27870
H1102       H  0.23466009  0.11746838  0.10209033     0.27870
H1103       H  0.25160773  0.07547949  0.05788888     0.18460
H1104       H  0.26716283  0.15774635  0.94734155     0.18460
C1105       C  0.27570854  0.97289111  0.87356248    -0.07370
C1106       C  0.29326307  0.94295260  0.85577793    -0.18500
C1107       C  0.29018587  0.93805038  0.81705878     0.09830
C1108       C  0.27250720  0.96570972  0.79455615    -0.06330
C1109       C  0.25090336  0.99291673  0.81264866    -0.18530
C1110       C  0.25072639  0.99535213  0.85205711     0.09860
S1111       S  0.30975642  0.89607029  0.79782245    -0.33490
S1112       S  0.21521694  0.02421245  0.87243016    -0.33500
H1113       H  0.21379435  0.00442101  0.90663478     0.27870
H1114       H  0.27578904  0.88648415  0.77968638     0.27870
H1115       H  0.30983797  0.92330405  0.87215121     0.18460
H1116       H  0.23548679  0.01337102  0.79625024     0.18460
C1117       C  0.25487432  0.96214944  0.11121007    -0.07370
C1118       C  0.27231565  0.93327289  0.13152200    -0.18500
C1119       C  0.27656862  0.93494151  0.17061363     0.09830
C1120       C  0.26237656  0.96600498  0.19033579    -0.07290
C1121       C  0.24081624  0.99251694  0.17028853    -0.18530
C1122       C  0.23711377  0.99096924  0.13105620     0.09860
S1123       S  0.30252723  0.89833046  0.19423689    -0.33490
S1124       S  0.21209792  0.02815150  0.10776251    -0.33500
H1125       H  0.20712411  0.00950776  0.07327171     0.27870
H1126       H  0.30464357  0.87369303  0.16351552     0.27870
H1127       H  0.28632509  0.91127938  0.11639172     0.18460
H1128       H  0.22919332  0.01627428  0.18461781     0.18460
C1129       C  0.49122882  0.09009391  0.22979905    -0.07370
C1130       C  0.52536105  0.10855123  0.22303548    -0.18500
C1131       C  0.52804054  0.14739384  0.22489838     0.09830
C1132       C  0.49570047  0.16847007  0.23325624    -0.07290
C1133       C  0.46311432  0.14981257  0.24512549    -0.18530
C1134       C  0.46041227  0.11079920  0.24328714     0.09860
S1135       S  0.57317611  0.16803918  0.21443907    -0.33490
S1136       S  0.41685336  0.08944295  0.25780956    -0.33500
H1137       H  0.43338275  0.05613535  0.27091000     0.27870
H1138       H  0.56779441  0.20153239  0.23409405     0.27870
H1139       H  0.54962367  0.09284585  0.21397093     0.18460
H1140       H  0.43893497  0.16569336  0.25386045     0.18460
C1141       C  0.50367824  0.85229805  0.22671689    -0.07370
C1142       C  0.53655977  0.83391941  0.21635966    -0.18500
C1143       C  0.54172003  0.79581112  0.22305312     0.09830
C1144       C  0.51313344  0.77457158  0.24090977    -0.07290
C1145       C  0.48142180  0.79362261  0.25411514    -0.18530
C1146       C  0.47557482  0.83171036  0.24567478     0.09860
S1147       S  0.58495751  0.77634679  0.20592225    -0.33490
S1148       S  0.43007953  0.85042394  0.25594511    -0.33500
H1149       H  0.43134635  0.88116808  0.23133434     0.27870
H1150       H  0.58397684  0.74406475  0.22800922     0.27870
H1151       H  0.55779906  0.84904975  0.20082476     0.18460
H1152       H  0.45930651  0.77793955  0.26783590     0.18460
C1153       C  0.39215499  0.97863415  0.24552834    -0.07370
C1154       C  0.37286135  0.00654184  0.22561689    -0.18500
C1155       C  0.33380345  0.00682722  0.22329411     0.09830
C1156       C  0.31310191  0.97792250  0.24078998    -0.07290
C1157       C  0.33220611  0.95316693  0.26518220    -0.18530
C1158       C  0.37156616  0.95392628  0.26836363     0.09860
S1159       S  0.31152722  0.04322701  0.19583349    -0.33490
S1160       S  0.39367006  0.92270437  0.30135106    -0.33500
H1161       H  0.42894637  0.94064658  0.30143133     0.27870
H1162       H  0.34348772  0.06617996  0.19135498     0.27870
H1163       H  0.38851816  0.02589366  0.20827821     0.18460
H1164       H  0.31695796  0.93182271  0.28027033     0.18460
C1165       C  0.70361067  0.96425018  0.23777554    -0.07370
C1166       C  0.68977842  0.92788020  0.22995974    -0.18500
C1167       C  0.65161026  0.92104134  0.22107551     0.09830
C1168       C  0.62636735  0.95133497  0.21819972    -0.07290
C1169       C  0.63997105  0.98713174  0.22857462    -0.18530
C1170       C  0.67737814  0.99371491  0.23910153     0.09860
S1171       S  0.63686783  0.87327922  0.21484091    -0.33490
S1172       S  0.68860787  0.04072641  0.25368082    -0.33500
H1173       H  0.71935841  0.03113761  0.27610998     0.27870
H1174       H  0.60563171  0.87751387  0.23840841     0.27870
H1175       H  0.70913778  0.90460182  0.22987473     0.18460
H1176       H  0.62128355  0.01096769  0.22829183     0.18460
C1177       C  0.62842600  0.18948906  0.00785846    -0.07370
C1178       C  0.64431172  0.21064001  0.03693610    -0.18500
C1179       C  0.68289756  0.21771557  0.03897240     0.09830
C1180       C  0.70647894  0.20228802  0.01126518    -0.07290
C1181       C  0.68976904  0.18499804  0.97969106    -0.18530
C1182       C  0.65114193  0.17822119  0.97786211     0.09860
S1183       S  0.70029698  0.24364784  0.07886881    -0.33490
S1184       S  0.63327876  0.15103202  0.93922751    -0.33500
H1185       H  0.60682660  0.17868538  0.93004718     0.27870
H1186       H  0.66569371  0.25856997  0.09019784     0.27870
H1187       H  0.62670612  0.21947602  0.05953095     0.18460
H1188       H  0.70736371  0.17385460  0.95772293     0.18460
C1189       C  0.38629945  0.19716475  0.99542349    -0.07370
C1190       C  0.36406560  0.21642928  0.96906475    -0.18500
C1191       C  0.32482518  0.21933282  0.97311424     0.09830
C1192       C  0.30730385  0.20486019  0.00597618    -0.07290
C1193       C  0.33049569  0.18798916  0.03335137    -0.18530
C1194       C  0.36896067  0.18255259  0.02788896     0.09860
S1195       S  0.29985776  0.23814297  0.93309268    -0.33490
S1196       S  0.39224855  0.15196811  0.06113682    -0.33500
H1197       H  0.42922187  0.15548482  0.04828685     0.27870
H1198       H  0.26603834  0.21886934  0.93853213     0.27870
H1199       H  0.37692337  0.22633896  0.94335557     0.18460
H1200       H  0.31780066  0.17560868  0.05800516     0.18460
C1201       C  0.49361386  0.19263548  0.86564020    -0.07370
C1202       C  0.46512911  0.21433543  0.84924650    -0.18500
C1203       C  0.46869188  0.22788568  0.81261393     0.09830
C1204       C  0.50134075  0.21960171  0.79221735    -0.07290
C1205       C  0.53152075  0.20204816  0.81069581    -0.18530
C1206       C  0.52771643  0.18737646  0.84662401     0.09860
S1207       S  0.42890452  0.25053090  0.79134166    -0.33490
S1208       S  0.56508278  0.15710362  0.86269007    -0.33500
H1209       H  0.55307244  0.15053403  0.89937649     0.27870
H1210       H  0.44649271  0.28588202  0.79336695     0.27870
H1211       H  0.43906395  0.21867531  0.86413898     0.18460
H1212       H  0.55630292  0.19460971  0.79495718     0.18460
C1213       C  0.49233419  0.21780857  0.18328127    -0.07370
C1214       C  0.52475292  0.23161831  0.16589855    -0.18500
C1215       C  0.52962668  0.22724309  0.12732829     0.09830
C1216       C  0.50133125  0.20911148  0.10596143    -0.07290
C1217       C  0.46702215  0.20054003  0.12244400    -0.18530
C1218       C  0.46194768  0.20483990  0.16073080     0.09860
S1219       S  0.57418843  0.24105404  0.10847469    -0.33490
S1220       S  0.41672588  0.19088019  0.17857287    -0.33500
H1221       H  0.41905352  0.21290560  0.21087297     0.27870
H1222       H  0.56050932  0.24900857  0.07219658     0.27870
H1223       H  0.54784988  0.24252774  0.18274884     0.18460
H1224       H  0.44493952  0.18769771  0.10589028     0.18460
C1225       C  0.64165476  0.97108993  0.75891182    -0.07370
C1226       C  0.65352153  0.00660228  0.74592353    -0.18500
C1227       C  0.69176748  0.01534737  0.74224290     0.09830
C1228       C  0.71859487  0.98854148  0.75320515    -0.07290
C1229       C  0.70630311  0.95250878  0.76335965    -0.18530
C1230       C  0.66866238  0.94293653  0.76442693     0.09860
S1231       S  0.70400527  0.06113144  0.72471124    -0.33490
S1232       S  0.65771327  0.89435816  0.77337431    -0.33500
H1233       H  0.62698333  0.89370429  0.74826816     0.27870
H1234       H  0.74126408  0.05274019  0.71553913     0.27870
H1235       H  0.63308942  0.02828887  0.74015413     0.18460
H1236       H  0.72642771  0.93112931  0.77060371     0.18460
C1237       C  0.32747767  0.97486309  0.75180303    -0.07370
C1238       C  0.34830548  0.94641983  0.73435129    -0.18500
C1239       C  0.38699897  0.94190129  0.74209405     0.09830
C1240       C  0.40490759  0.96572663  0.76862735    -0.07290
C1241       C  0.38461019  0.99523893  0.78396988    -0.18530
C1242       C  0.34703603  0.00095864  0.77477099     0.09860
S1243       S  0.41047567  0.90332324  0.71987116    -0.33490
S1244       S  0.32548478  0.04205006  0.79405041    -0.33500
H1245       H  0.30180672  0.04718608  0.76287159     0.27870
H1246       H  0.44749306  0.91594968  0.72545215     0.27870
H1247       H  0.33401023  0.92606088  0.71673684     0.18460
H1248       H  0.39836742  0.01464089  0.80306167     0.18460
C1249       C  0.48888649  0.09428820  0.76272536    -0.07370
C1250       C  0.52066890  0.10972116  0.74477291    -0.18500
C1251       C  0.52300894  0.14758976  0.73496573     0.09830
C1252       C  0.49292909  0.17182975  0.74268516    -0.07290
C1253       C  0.45943006  0.15558548  0.75641508    -0.18530
C1254       C  0.45711347  0.11753736  0.76664401     0.09860
S1255       S  0.56706727  0.16380186  0.71704692    -0.33490
S1256       S  0.41342043  0.10108919  0.78571358    -0.33500
H1257       H  0.41248836  0.06927806  0.76245718     0.27870
H1258       H  0.55259690  0.16644621  0.68019822     0.27870
H1259       H  0.54527598  0.09270392  0.74007554     0.18460
H1260       H  0.43568416  0.17341462  0.76216993     0.18460
C1261       C  0.49815598  0.78378496  0.75366490    -0.07370
C1262       C  0.52438761  0.80164992  0.72990365    -0.18500
C1263       C  0.52893222  0.84102408  0.73004163     0.09830
C1264       C  0.50661539  0.86284057  0.75405302    -0.07290
C1265       C  0.47694214  0.84530131  0.77313212    -0.18530
C1266       C  0.47242858  0.80646140  0.77313481     0.09860
S1267       S  0.56589817  0.86255102  0.70304107    -0.33490
S1268       S  0.43503655  0.78748708  0.80138561    -0.33500
H1269       H  0.43029530  0.75477550  0.78008478     0.27870
H1270       H  0.57751313  0.82983054  0.68463168     0.27870
H1271       H  0.54399407  0.78483622  0.71436317     0.18460
H1272       H  0.45893379  0.86187734  0.79095145     0.18460
C1273       C  0.39930943  0.73527208  0.99691559    -0.07370
C1274       C  0.38170785  0.74620702  0.03008195    -0.18500
C1275       C  0.34466811  0.73566642  0.03796554     0.09830
C1276       C  0.32255242  0.71628883  0.01057015    -0.07290
C1277       C  0.34150784  0.70107179  0.97975898    -0.18530
C1278       C  0.37955492  0.71014312  0.97295994     0.09860
S1279       S  0.32719341  0.74930051  0.08333747    -0.33490
S1280       S  0.40023652  0.69133065  0.93172664    -0.33500
H1281       H  0.43385632  0.68279603  0.95084494     0.27870
H1282       H  0.29476435  0.72684847  0.08208488     0.27870
H1283       H  0.39693693  0.76321215  0.05034237     0.18460
H1284       H  0.32582273  0.68518060  0.95889244     0.18460
C1285       C  0.63858000  0.72476216  0.99024354    -0.07370
C1286       C  0.64965112  0.70642951  0.02366449    -0.18500
C1287       C  0.68759709  0.69946910  0.03174091     0.09830
C1288       C  0.71531101  0.71248969  0.00679010    -0.07290
C1289       C  0.70390015  0.72528596  0.97113401    -0.18530
C1290       C  0.66602534  0.73079157  0.96224657     0.09860
S1291       S  0.69896077  0.67514427  0.07453392    -0.33490
S1292       S  0.65522986  0.74634107  0.91511677    -0.33500
H1293       H  0.62273550  0.72381724  0.91163692     0.27870
H1294       H  0.70053613  0.64038749  0.05606320     0.27870
H1295       H  0.62894698  0.69905979  0.04457836     0.18460
H1296       H  0.72490982  0.73307649  0.95065421     0.18460
C1297       C  0.49464177  0.73564143  0.11852021    -0.07370
C1298       C  0.46321554  0.74021743  0.14140505    -0.18500
C1299       C  0.46561625  0.73325956  0.18001919     0.09830
C1300       C  0.50031652  0.72213038  0.19620569    -0.07290
C1301       C  0.52936276  0.71140749  0.17279725    -0.18530
C1302       C  0.52790401  0.71958734  0.13460682     0.09860
S1303       S  0.42347126  0.73912173  0.20703024    -0.33490
S1304       S  0.57178352  0.71323187  0.11033639    -0.33500
H1305       H  0.57469776  0.75129715  0.10027016     0.27870
H1306       H  0.43628754  0.71978639  0.23904155     0.27870
H1307       H  0.43700649  0.75028702  0.12945784     0.18460
H1308       H  0.55545142  0.70138007  0.18503266     0.18460
C1309       C  0.52503242  0.72946257  0.88221055    -0.07370
C1310       C  0.54930442  0.75073329  0.85980513    -0.18500
C1311       C  0.54468703  0.75203217  0.82096099     0.09830
C1312       C  0.51257420  0.73507242  0.80425428    -0.07290
C1313       C  0.49045724  0.71091307  0.82637312    -0.18530
C1314       C  0.49862161  0.70575696  0.86457136     0.09860
S1315       S  0.58113786  0.77514531  0.79469759    -0.33490
S1316       S  0.47723166  0.66686300  0.88812290    -0.33500
H1317       H  0.50636763  0.66223534  0.91466087     0.27870
H1318       H  0.57850004  0.75044652  0.76400073     0.27870
H1319       H  0.57132298  0.76751012  0.87290243     0.18460
H1320       H  0.46695881  0.69580421  0.81398433     0.18460
C1321       C  0.90008856  0.69277573  0.01798167    -0.07370
C1322       C  0.88457466  0.71073228  0.04911149    -0.18500
C1323       C  0.84633439  0.71966102  0.04975477     0.09830
C1324       C  0.82256599  0.70764249  0.02003017    -0.07290
C1325       C  0.83895754  0.69340810  0.98735925    -0.18530
C1326       C  0.87728985  0.68600302  0.98592715     0.09860
S1327       S  0.82957000  0.74529152  0.08943716    -0.33490
S1328       S  0.89442656  0.66323499  0.94436126    -0.33500
H1329       H  0.91541465  0.69481457  0.93314613     0.27870
H1330       H  0.82356632  0.77772516  0.06779367     0.27870
H1331       H  0.90221967  0.71771640  0.07306002     0.18460
H1332       H  0.82112832  0.68467260  0.96402343     0.18460
C1333       C  0.21194877  0.71497461  0.00348242    -0.07370
C1334       C  0.19361827  0.71158138  0.03805823    -0.18500
C1335       C  0.15499884  0.71814252  0.04113102     0.09830
C1336       C  0.13333686  0.72667512  0.00874788    -0.07290
C1337       C  0.15231313  0.73477363  0.97528522    -0.18530
C1338       C  0.19138411  0.72909217  0.97228177     0.09860
S1339       S  0.13364741  0.71057073  0.08624651    -0.33490
S1340       S  0.21346416  0.73688445  0.92761208    -0.33500
H1341       H  0.18385218  0.75729057  0.91118461     0.27870
H1342       H  0.10056223  0.73037541  0.07768283     0.27870
H1343       H  0.20921939  0.70226983  0.06260974     0.18460
H1344       H  0.13592759  0.74101405  0.95028246     0.18460
C1345       C  0.02149812  0.72445907  0.79999380    -0.07370
C1346       C  0.05744207  0.72955109  0.81617413    -0.18500
C1347       C  0.06488713  0.71991276  0.85390693     0.09830
C1348       C  0.03526974  0.70713345  0.87701194    -0.07290
C1349       C  0.99884784  0.70551273  0.86155800    -0.18530
C1350       C  0.99163371  0.71346577  0.82386023     0.09860
S1351       S  0.11262067  0.72383172  0.87050918    -0.33490
S1352       S  0.94343943  0.70684509  0.80867082    -0.33500
H1353       H  0.94692417  0.72448067  0.77386772     0.27870
H1354       H  0.11588686  0.68507705  0.87685622     0.27870
H1355       H  0.08049497  0.73857513  0.79868407     0.18460
H1356       H  0.97551973  0.69628262  0.87872936     0.18460
C1357       C  0.01470185  0.71196142  0.19493826    -0.07370
C1358       C  0.99286569  0.73303642  0.16965830    -0.18500
C1359       C  0.99846985  0.73057302  0.13052102     0.09830
C1360       C  0.02553353  0.70532892  0.11606568    -0.07290
C1361       C  0.05041409  0.68851286  0.14163273    -0.18530
C1362       C  0.04618186  0.69259653  0.18055583     0.09860
S1363       S  0.96764136  0.75746356  0.10079629    -0.33490
S1364       S  0.08058399  0.67138453  0.21151816    -0.33500
H1365       H  0.10596814  0.66032035  0.18362705     0.27870
H1366       H  0.99719291  0.77197927  0.07903794     0.27870
H1367       H  0.96938398  0.74899929  0.18010605     0.18460
H1368       H  0.07214924  0.67037665  0.13105702     0.18460
C1369       C  0.88818066  0.24141024  0.98169445    -0.07370
C1370       C  0.87866875  0.22002433  0.01381234    -0.18500
C1371       C  0.84191123  0.20734510  0.02025291     0.09830
C1372       C  0.81298583  0.21669494  0.99465279    -0.07290
C1373       C  0.82354869  0.23295429  0.96002628    -0.18530
C1374       C  0.86054284  0.24518806  0.95319050     0.09860
S1375       S  0.83354350  0.18127238  0.06260393    -0.33490
S1376       S  0.86978155  0.26725952  0.90867811    -0.33500
H1377       H  0.90279198  0.24672849  0.90243288     0.27870
H1378       H  0.83251167  0.14697463  0.04322830     0.27870
H1379       H  0.89973285  0.21428684  0.03523156     0.18460
H1380       H  0.80216530  0.23868510  0.93897842     0.18460
C1381       C  0.01363963  0.23293898  0.81132196    -0.07370
C1382       C  0.04552759  0.24902842  0.82862558    -0.18500
C1383       C  0.04879475  0.25166757  0.86754081     0.09830
C1384       C  0.01998213  0.23693848  0.89029601    -0.07290
C1385       C  0.99126707  0.21543839  0.87348532    -0.18530
C1386       C  0.98722470  0.21374191  0.83421769     0.09860
S1387       S  0.08836060  0.27787920  0.88610386    -0.33490
S1388       S  0.94542423  0.19048475  0.81675402    -0.33500
H1389       H  0.94232121  0.21039516  0.78305101     0.27870
H1390       H  0.08714570  0.26209580  0.92220435     0.27870
H1391       H  0.06660919  0.26277560  0.81154371     0.18460
H1392       H  0.96912489  0.20390602  0.89084424     0.18460
C1393       C  0.11742404  0.21348912  0.01106940    -0.07370
C1394       C  0.13627194  0.22525928  0.04370327    -0.18500
C1395       C  0.17535206  0.22518925  0.04695863     0.09830
C1396       C  0.19741693  0.21253020  0.01674769    -0.07290
C1397       C  0.17856825  0.19786197  0.98480051    -0.18530
C1398       C  0.13899440  0.19885852  0.98140435     0.09860
S1399       S  0.19459279  0.24668732  0.08870600    -0.33490
S1400       S  0.11812067  0.18552971  0.93697095    -0.33500
H1401       H  0.08098815  0.18250840  0.94990482     0.27870
H1402       H  0.22725932  0.22542161  0.08962385     0.27870
H1403       H  0.12072175  0.23974249  0.06502946     0.18460
H1404       H  0.19482859  0.18903809  0.96083750     0.18460
C1405       C  0.00335232  0.22685956  0.20194078    -0.07370
C1406       C  0.03934668  0.22273744  0.18686113    -0.18500
C1407       C  0.04619134  0.22938777  0.14892225     0.09830
C1408       C  0.01701511  0.24314458  0.12566919    -0.07290
C1409       C  0.98053237  0.24552790  0.14045681    -0.18530
C1410       C  0.97333638  0.23663482  0.17787837     0.09860
S1411       S  0.09193685  0.21762238  0.13201176    -0.33490
S1412       S  0.92540916  0.23822848  0.19325902    -0.33500
H1413       H  0.92899657  0.20565943  0.21503122     0.27870
H1414       H  0.07760341  0.20063676  0.09912953     0.27870
H1415       H  0.06255491  0.21451042  0.20485094     0.18460
H1416       H  0.95729433  0.25464755  0.12282291     0.18460
C1417       C  0.88423038  0.45428893  0.22566454    -0.07370
C1418       C  0.87041289  0.48214085  0.24974162    -0.18500
C1419       C  0.83179729  0.48639266  0.25602562     0.09830
C1420       C  0.80587117  0.46023375  0.24047749    -0.07290
C1421       C  0.82041477  0.42999456  0.21981363    -0.18530
C1422       C  0.85869710  0.42734585  0.21120433     0.09860
S1423       S  0.81813782  0.52838858  0.27992858    -0.33490
S1424       S  0.87207413  0.39016717  0.17981374    -0.33500
H1425       H  0.90969872  0.38754676  0.19161528     0.27870
H1426       H  0.79284053  0.53923711  0.25161259     0.27870
H1427       H  0.88954049  0.50323573  0.26085188     0.18460
H1428       H  0.80116693  0.40967947  0.20753727     0.18460
C1429       C  0.12267902  0.46850065  0.24843045    -0.07370
C1430       C  0.14100528  0.43938953  0.26711526    -0.18500
C1431       C  0.18009394  0.43785785  0.26747949     0.09830
C1432       C  0.20034755  0.46734238  0.25023852    -0.07290
C1433       C  0.18145389  0.49977404  0.23854812    -0.18530
C1434       C  0.14264434  0.50011023  0.23607036     0.09860
S1435       S  0.20209204  0.39582092  0.28481577    -0.33490
S1436       S  0.12099299  0.53830323  0.21078352    -0.33500
H1437       H  0.08468789  0.53229939  0.22456772     0.27870
H1438       H  0.17050892  0.38096352  0.30327097     0.27870
H1439       H  0.12478390  0.41531739  0.27631529     0.18460
H1440       H  0.19703562  0.52319420  0.22695025     0.18460
C1441       C  0.98455001  0.58204154  0.22796458    -0.07370
C1442       C  0.95909832  0.60594960  0.20957316    -0.18500
C1443       C  0.96118333  0.64488128  0.21409908     0.09830
C1444       C  0.99001516  0.66074661  0.23678860    -0.07290
C1445       C  0.01291702  0.63676790  0.25810297    -0.18530
C1446       C  0.01009337  0.59783313  0.25456037     0.09860
S1447       S  0.92707958  0.67404798  0.19024504    -0.33490
S1448       S  0.04039000  0.57044755  0.28461936    -0.33500
H1449       H  0.01234369  0.54387371  0.29320753     0.27870
H1450       H  0.90549268  0.64504210  0.17401365     0.27870
H1451       H  0.93839239  0.59426546  0.19034326     0.18460
H1452       H  0.03474434  0.64822598  0.27608098     0.18460
C1453       C  0.00887873  0.34823496  0.25738373    -0.07370
C1454       C  0.04138453  0.32633650  0.26102819    -0.18500
C1455       C  0.03934463  0.28733511  0.26139885     0.09830
C1456       C  0.00407642  0.26934880  0.25776965    -0.07290
C1457       C  0.97144221  0.29124217  0.26010771    -0.18530
C1458       C  0.97350893  0.33048887  0.26073845     0.09860
S1459       S  0.08284900  0.26229714  0.26354965    -0.33490
S1460       S  0.93018556  0.35604040  0.26223657    -0.33500
H1461       H  0.94458487  0.38435025  0.28583750     0.27870
H1462       H  0.07401138  0.24646811  0.29854974     0.27870
H1463       H  0.06885119  0.33966905  0.26001387     0.18460
H1464       H  0.94408472  0.27782669  0.25936247     0.18460
C1465       C  0.25448371  0.45838250  0.88130547    -0.07370
C1466       C  0.24362629  0.42618791  0.86150529    -0.18500
C1467       C  0.24641565  0.42386960  0.82253754     0.09830
C1468       C  0.26038988  0.45453513  0.80159593    -0.07290
C1469       C  0.27408318  0.48599349  0.82160247    -0.18530
C1470       C  0.27139217  0.48815040  0.86119562     0.09860
S1471       S  0.22850258  0.38181527  0.80115328    -0.33490
S1472       S  0.28728646  0.53052684  0.88379581    -0.33500
H1473       H  0.28945928  0.51584720  0.92039745     0.27870
H1474       H  0.26160306  0.37603161  0.78104823     0.27870
H1475       H  0.22995950  0.40345856  0.87635347     0.18460
H1476       H  0.28454613  0.51002159  0.80620974     0.18460
C1477       C  0.24339879  0.46811707  0.19560167    -0.07370
C1478       C  0.25496497  0.50269676  0.18025936    -0.18500
C1479       C  0.24873389  0.51109603  0.14203685     0.09830
C1480       C  0.22920649  0.48518277  0.11904290    -0.07290
C1481       C  0.21855861  0.45056081  0.13438055    -0.18530
C1482       C  0.22605319  0.44151053  0.17166288     0.09860
S1483       S  0.26718862  0.55432458  0.12396991    -0.33490
S1484       S  0.21180457  0.39550481  0.18696980    -0.33500
H1485       H  0.24057326  0.39196829  0.21395746     0.27870
H1486       H  0.28143590  0.53741855  0.09142971     0.27870
H1487       H  0.26761231  0.52373051  0.19836743     0.18460
H1488       H  0.20439865  0.42990155  0.11685157     0.18460
C1489       C  0.23941628  0.58185217  0.98852218    -0.07370
C1490       C  0.25510022  0.59659174  0.02175814    -0.18500
C1491       C  0.26241827  0.63500841  0.02592537     0.09830
C1492       C  0.25553575  0.65974041  0.99566961    -0.07290
C1493       C  0.24232371  0.64444511  0.96144460    -0.18530
C1494       C  0.23336827  0.60609829  0.95784404     0.09860
S1495       S  0.27581011  0.65132334  0.07183781    -0.33490
S1496       S  0.21264875  0.58865779  0.91474011    -0.33500
H1497       H  0.21501182  0.62236599  0.89435368     0.27870
H1498       H  0.31316975  0.65788304  0.06096985     0.27870
H1499       H  0.25897123  0.57841710  0.04572384     0.18460
H1500       H  0.23662686  0.66300154  0.93813902     0.18460
C1501       C  0.24523448  0.26370152  0.00587027    -0.07370
C1502       C  0.22891533  0.27700016  0.97242243    -0.18500
C1503       C  0.22902414  0.31472173  0.96304551     0.09830
C1504       C  0.24160089  0.34148718  0.98979117    -0.07290
C1505       C  0.25944252  0.32841529  0.02277272    -0.18530
C1506       C  0.26255786  0.28990800  0.03061281     0.09860
S1507       S  0.21296347  0.32585659  0.91613662    -0.33490
S1508       S  0.28763522  0.27764488  0.07320739    -0.33500
H1509       H  0.28574357  0.23878494  0.06996607     0.27870
H1510       H  0.24549795  0.34706618  0.90844008     0.27870
H1511       H  0.21615407  0.25750727  0.95272773     0.18460
H1512       H  0.27046474  0.34834430  0.04307015     0.18460
C1513       C  0.13382817  0.48029850  0.75280539    -0.07370
C1514       C  0.14703777  0.44815554  0.73460594    -0.18500
C1515       C  0.18592962  0.44013195  0.73264628     0.09830
C1516       C  0.21255047  0.46511599  0.74954569    -0.07290
C1517       C  0.19911991  0.49939276  0.76296798    -0.18530
C1518       C  0.16075172  0.50716853  0.76450323     0.09860
S1519       S  0.19820922  0.39730677  0.70912433    -0.33490
S1520       S  0.14762594  0.55161908  0.78339931    -0.33500
H1521       H  0.12060757  0.55671380  0.75474624     0.27870
H1522       H  0.23551570  0.39565322  0.72124559     0.27870
H1523       H  0.12695155  0.42814315  0.72368861     0.18460
H1524       H  0.21875851  0.51982162  0.77439076     0.18460
C1525       C  0.01657931  0.36489870  0.77538723    -0.07370
C1526       C  0.98557522  0.34633334  0.79059709    -0.18500
C1527       C  0.97959735  0.30803826  0.78591314     0.09830
C1528       C  0.00564071  0.28619047  0.76556278    -0.07290
C1529       C  0.03589868  0.30509552  0.74829791    -0.18530
C1530       C  0.04174815  0.34400722  0.75329943     0.09860
S1531       S  0.93922393  0.28891550  0.80944666    -0.33490
S1532       S  0.08335477  0.36446929  0.73370394    -0.33500
H1533       H  0.08921952  0.38998288  0.76327559     0.27870
H1534       H  0.92490288  0.27118753  0.77729977     0.27870
H1535       H  0.96606313  0.36172576  0.80757267     0.18460
H1536       H  0.05691915  0.28904477  0.73365280     0.18460
C1537       C  0.03002668  0.60293548  0.76908399    -0.07370
C1538       C  0.06209305  0.62470940  0.76184315    -0.18500
C1539       C  0.05889521  0.66226275  0.75088222     0.09830
C1540       C  0.02295483  0.67858928  0.74763757    -0.07290
C1541       C  0.99121083  0.65554617  0.74912061    -0.18530
C1542       C  0.99398436  0.61872974  0.76191292     0.09860
S1543       S  0.10079657  0.68963477  0.74209851    -0.33490
S1544       S  0.95006692  0.59586033  0.77317802    -0.33500
H1545       H  0.96253913  0.58360085  0.80880301     0.27870
H1546       H  0.12686261  0.66078770  0.74840935     0.27870
H1547       H  0.08963907  0.61272636  0.76574724     0.18460
H1548       H  0.96365331  0.66754452  0.74491083     0.18460
C1549       C  0.89890810  0.46074387  0.77165991    -0.07370
C1550       C  0.88580752  0.49233780  0.75173141    -0.18500
C1551       C  0.84763433  0.49738970  0.74416101     0.09830
C1552       C  0.82203154  0.46946991  0.75574051    -0.07290
C1553       C  0.83560256  0.43621017  0.77172211    -0.18530
C1554       C  0.87349735  0.43132466  0.77949712     0.09860
S1555       S  0.83426692  0.54109389  0.72228964    -0.33490
S1556       S  0.88664027  0.38763238  0.80091172    -0.33500
H1557       H  0.91295112  0.38043544  0.77260532     0.27870
H1558       H  0.79709763  0.54255004  0.73477740     0.27870
H1559       H  0.90505078  0.51470342  0.74418505     0.18460
H1560       H  0.81613174  0.41453436  0.78042865     0.18460
C1561       C  0.76226879  0.26250047  0.00881315    -0.07370
C1562       C  0.74958785  0.28155556  0.97642651    -0.18500
C1563       C  0.74952390  0.32090811  0.97517720     0.09830
C1564       C  0.76004667  0.34111367  0.00772618    -0.07290
C1565       C  0.76596857  0.32155241  0.04148850    -0.18530
C1566       C  0.77057451  0.28303280  0.04166542     0.09860
S1567       S  0.74037357  0.34334048  0.93073412    -0.33490
S1568       S  0.79104560  0.26145661  0.08303986    -0.33500
H1569       H  0.78878933  0.29250678  0.10716618     0.27870
H1570       H  0.71780068  0.37145092  0.94622447     0.27870
H1571       H  0.74284663  0.26587473  0.95118199     0.18460
H1572       H  0.77275204  0.33709081  0.06682986     0.18460
C1573       C  0.78472630  0.57838038  0.01542704    -0.07370
C1574       C  0.80133782  0.59642386  0.04617514    -0.18500
C1575       C  0.79467531  0.63392493  0.05341942     0.09830
C1576       C  0.77565137  0.65603633  0.02634445    -0.07290
C1577       C  0.75870755  0.63802183  0.99536371    -0.18530
C1578       C  0.76120323  0.59921294  0.99088204     0.09860
S1579       S  0.81170690  0.65151728  0.09776838    -0.33490
S1580       S  0.73685436  0.57889818  0.95124063    -0.33500
H1581       H  0.71596075  0.55401565  0.97367052     0.27870
H1582       H  0.78208638  0.67682458  0.10175245     0.27870
H1583       H  0.82002670  0.58142765  0.06476355     0.18460
H1584       H  0.74500361  0.65419209  0.97351656     0.18460
C1585       C  0.76186161  0.46737992  0.11544839    -0.07370
C1586       C  0.73851309  0.44163414  0.13416568    -0.18500
C1587       C  0.73475308  0.44235945  0.17377363     0.09830
C1588       C  0.75270392  0.47109035  0.19502850    -0.07290
C1589       C  0.77161010  0.49941469  0.17525684    -0.18530
C1590       C  0.77841387  0.49667228  0.13678485     0.09860
S1591       S  0.71162703  0.40362931  0.19654479    -0.33490
S1592       S  0.81390706  0.52794934  0.11898085    -0.33500
H1593       H  0.80831543  0.51978084  0.08105626     0.27870
H1594       H  0.69613897  0.38727173  0.16389677     0.27870
H1595       H  0.72691631  0.41835046  0.11830175     0.18460
H1596       H  0.78618124  0.52120063  0.19078841     0.18460
C1597       C  0.78020858  0.49233315  0.87974560    -0.07370
C1598       C  0.75911174  0.46235267  0.86429103    -0.18500
C1599       C  0.75640394  0.45682687  0.82559058     0.09830
C1600       C  0.77299457  0.48348912  0.80150607    -0.07290
C1601       C  0.78933744  0.51597719  0.81689748    -0.18530
C1602       C  0.79378740  0.52054788  0.85543008     0.09860
S1603       S  0.73414435  0.41378811  0.81016701    -0.33490
S1604       S  0.82012240  0.56127379  0.87046875    -0.33500
H1605       H  0.79501790  0.57046725  0.89906234     0.27870
H1606       H  0.75157464  0.41052098  0.77524817     0.27870
H1607       H  0.74734055  0.44091539  0.88236161     0.18460
H1608       H  0.80162508  0.53686265  0.79866085     0.18460
C1609       C  0.28804630  0.45309819  0.61458928    -0.07370
C1610       C  0.30483253  0.42573410  0.63724999    -0.18500
C1611       C  0.29884356  0.42436519  0.67589126     0.09830
C1612       C  0.27649629  0.45202906  0.69337616    -0.07290
C1613       C  0.25649067  0.47697239  0.67040501    -0.18530
C1614       C  0.26197004  0.47781916  0.63141948     0.09860
S1615       S  0.32173543  0.38671595  0.70078343    -0.33490
S1616       S  0.23568843  0.51196309  0.60520431    -0.33500
H1617       H  0.26711885  0.53593471  0.60223394     0.27870
H1618       H  0.29941900  0.38834885  0.73276774     0.27870
H1619       H  0.32417940  0.40595725  0.62517323     0.18460
H1620       H  0.23870213  0.49786116  0.68306977     0.18460
C1621       C  0.26577072  0.46664000  0.38188470    -0.07370
C1622       C  0.27943306  0.43483486  0.36377615    -0.18500
C1623       C  0.27861052  0.43205495  0.32473729     0.09830
C1624       C  0.26227982  0.46111784  0.30314491    -0.07290
C1625       C  0.24507344  0.49110500  0.32166174    -0.18530
C1626       C  0.24678688  0.49424269  0.36076051     0.09860
S1627       S  0.30186856  0.39227396  0.30460408    -0.33490
S1628       S  0.23019128  0.53708075  0.38131496    -0.33500
H1629       H  0.21796358  0.52029224  0.41481699     0.27870
H1630       H  0.27953138  0.39077037  0.27202322     0.27870
H1631       H  0.29465321  0.41395613  0.37993923     0.18460
H1632       H  0.23313697  0.51387799  0.30540688     0.18460
C1633       C  0.27363941  0.59864532  0.47703072    -0.07370
C1634       C  0.28625809  0.62130200  0.44727943    -0.18500
C1635       C  0.28481169  0.65996025  0.44930136     0.09830
C1636       C  0.27005353  0.67709924  0.48149011    -0.07290
C1637       C  0.25181148  0.65453805  0.50818244    -0.18530
C1638       C  0.25316402  0.61548464  0.50617452     0.09860
S1639       S  0.30500416  0.68568326  0.41105275    -0.33490
S1640       S  0.22943063  0.58935631  0.54219145    -0.33500
H1641       H  0.21687102  0.56094515  0.51763929     0.27870
H1642       H  0.26922543  0.69516927  0.39683578     0.27870
H1643       H  0.29999655  0.60920058  0.42315679     0.18460
H1644       H  0.23912287  0.66678000  0.53244066     0.18460
C1645       C  0.28411977  0.35947464  0.49212846    -0.07370
C1646       C  0.26607219  0.34218239  0.46129806    -0.18500
C1647       C  0.25800305  0.30337696  0.46150297     0.09830
C1648       C  0.26655166  0.28192725  0.49407455    -0.07290
C1649       C  0.28187499  0.30004146  0.52521255    -0.18530
C1650       C  0.29172561  0.33752189  0.52454323     0.09860
S1651       S  0.23822447  0.28357905  0.41909684    -0.33490
S1652       S  0.31846326  0.35333381  0.56452619    -0.33500
H1653       H  0.30313300  0.32844013  0.59110830     0.27870
H1654       H  0.24719522  0.24625221  0.42647386     0.27870
H1655       H  0.26011539  0.35850364  0.43625052     0.18460
H1656       H  0.28951516  0.28367481  0.54963991     0.18460
C1657       C  0.50931742  0.59506274  0.75148744    -0.07370
C1658       C  0.47366550  0.61002864  0.74351946    -0.18500
C1659       C  0.46774009  0.64890436  0.74260922     0.09830
C1660       C  0.49779301  0.67388555  0.75067179    -0.07290
C1661       C  0.53186164  0.65882615  0.76348396    -0.18530
C1662       C  0.53829164  0.62024133  0.76263311     0.09860
S1663       S  0.42192918  0.66482134  0.72832364    -0.33490
S1664       S  0.58588299  0.60620068  0.77063821    -0.33500
H1665       H  0.58784780  0.58275319  0.73912815     0.27870
H1666       H  0.42371180  0.69782181  0.74958231     0.27870
H1667       H  0.45125850  0.59149975  0.73399571     0.18460
H1668       H  0.55513832  0.67748845  0.77011818     0.18460
C1669       C  0.63876655  0.48595247  0.72962008    -0.07370
C1670       C  0.65513832  0.45555153  0.71168463    -0.18500
C1671       C  0.69264449  0.44684244  0.71840528     0.09830
C1672       C  0.71481585  0.47113965  0.74097363    -0.07290
C1673       C  0.69714590  0.49908048  0.76196598    -0.18530
C1674       C  0.65869153  0.50486785  0.75824794     0.09860
S1675       S  0.71222922  0.40598092  0.69636421    -0.33490
S1676       S  0.63702976  0.53468052  0.79212615    -0.33500
H1677       H  0.60042315  0.52014208  0.78772908     0.27870
H1678       H  0.67854352  0.39208676  0.68050772     0.27870
H1679       H  0.63861515  0.43913862  0.69186127     0.18460
H1680       H  0.71324975  0.51782823  0.77980908     0.18460
C1681       C  0.39907686  0.48343830  0.73333715    -0.07370
C1682       C  0.37355880  0.51050029  0.72068715    -0.18500
C1683       C  0.33487843  0.50662273  0.72701651     0.09830
C1684       C  0.32051972  0.47378211  0.74433446    -0.07290
C1685       C  0.34619616  0.44926397  0.76132272    -0.18530
C1686       C  0.38515241  0.45365840  0.75605532     0.09860
S1687       S  0.30495841  0.54399701  0.71088437    -0.33490
S1688       S  0.41478537  0.41727369  0.77463088    -0.33500
H1689       H  0.43772717  0.44248048  0.79493696     0.27870
H1690       H  0.27505230  0.53531016  0.73498650     0.27870
H1691       H  0.38368390  0.53427653  0.70464046     0.18460
H1692       H  0.33584576  0.42462795  0.77580021     0.18460
C1693       C  0.50088642  0.28091161  0.73377399    -0.07370
C1694       C  0.46832508  0.29647010  0.71741903    -0.18500
C1695       C  0.46491844  0.33481148  0.71071057     0.09830
C1696       C  0.49425126  0.35945089  0.72195546    -0.07290
C1697       C  0.52465668  0.34444615  0.74262792    -0.18530
C1698       C  0.52844431  0.30577606  0.74868211     0.09860
S1699       S  0.42350424  0.34939784  0.68522548    -0.33490
S1700       S  0.56938169  0.29151835  0.77525182    -0.33500
H1701       H  0.56602497  0.25324032  0.76934811     0.27870
H1702       H  0.44427836  0.36087820  0.65370177     0.27870
H1703       H  0.44616535  0.27812219  0.70713503     0.18460
H1704       H  0.54667548  0.36289498  0.75309163     0.18460
C1705       C  0.75185999  0.57650443  0.48433525    -0.07370
C1706       C  0.75936192  0.59268867  0.44904372    -0.18500
C1707       C  0.76731123  0.63150269  0.44598565     0.09830
C1708       C  0.76184142  0.65472390  0.47753958    -0.07290
C1709       C  0.75614471  0.63803536  0.51245346    -0.18530
C1710       C  0.75548570  0.59950541  0.51649987     0.09860
S1711       S  0.78517928  0.65095518  0.40283546    -0.33490
S1712       S  0.76273596  0.58272703  0.56342075    -0.33500
H1713       H  0.78714344  0.55397246  0.55261372     0.27870
H1714       H  0.78611272  0.61693082  0.38300081     0.27870
H1715       H  0.75946740  0.57505035  0.42432394     0.18460
H1716       H  0.75233341  0.65520178  0.53713570     0.18460
C1717       C  0.75075365  0.49561117  0.61748012    -0.07370
C1718       C  0.77717744  0.46902950  0.63034057    -0.18500
C1719       C  0.78262341  0.46209879  0.66853017     0.09830
C1720       C  0.76418580  0.48506462  0.69459842    -0.07290
C1721       C  0.74420862  0.51646906  0.68143245    -0.18530
C1722       C  0.73495096  0.52061127  0.64354442     0.09860
S1723       S  0.80989644  0.42133001  0.68071680    -0.33490
S1724       S  0.69925019  0.55441332  0.63075874    -0.33500
H1725       H  0.69140462  0.56749644  0.66710525     0.27870
H1726       H  0.78992882  0.41161441  0.71309531     0.27870
H1727       H  0.79077166  0.45053157  0.61062788     0.18460
H1728       H  0.73151724  0.53498867  0.70167316     0.18460
C1729       C  0.75155529  0.26362233  0.48771753    -0.07370
C1730       C  0.76152224  0.28405984  0.51988477    -0.18500
C1731       C  0.75723596  0.32282582  0.52083265     0.09830
C1732       C  0.74493764  0.34173084  0.48792411    -0.07290
C1733       C  0.74070924  0.32172685  0.45445539    -0.18530
C1734       C  0.74317370  0.28310019  0.45389160     0.09860
S1735       S  0.76381989  0.34520176  0.56582409    -0.33490
S1736       S  0.73194679  0.26188320  0.40922615    -0.33500
H1737       H  0.74246028  0.22605021  0.41943680     0.27870
H1738       H  0.72744824  0.36053966  0.56590001     0.27870
H1739       H  0.76918612  0.26950498  0.54549140     0.18460
H1740       H  0.73303287  0.33610835  0.42864849     0.18460
C1741       C  0.74778652  0.46953407  0.38589899    -0.07370
C1742       C  0.73403048  0.50116000  0.36720055    -0.18500
C1743       C  0.73605209  0.50474706  0.32812204     0.09830
C1744       C  0.75143585  0.47541747  0.30614500    -0.07290
C1745       C  0.76960031  0.44600008  0.32530725    -0.18530
C1746       C  0.76761986  0.44258025  0.36478323     0.09860
S1747       S  0.71659543  0.54714331  0.30853779    -0.33490
S1748       S  0.78581404  0.40048957  0.38578351    -0.33500
H1749       H  0.80623148  0.41966807  0.41387338     0.27870
H1750       H  0.73410787  0.54482967  0.27358764     0.27870
H1751       H  0.71979669  0.52261760  0.38311527     0.18460
H1752       H  0.78209095  0.42357087  0.30934831     0.18460
C1753       C  0.63604822  0.71587819  0.49502553    -0.07370
C1754       C  0.64731963  0.70249001  0.46003644    -0.18500
C1755       C  0.68543449  0.69699071  0.45210644     0.09830
C1756       C  0.71319150  0.70520901  0.47989631    -0.07290
C1757       C  0.70161516  0.72062128  0.51419934    -0.18530
C1758       C  0.66370179  0.72704596  0.52151784     0.09860
S1759       S  0.69735943  0.67852141  0.40670220    -0.33490
S1760       S  0.65242286  0.74947608  0.56527091    -0.33500
H1761       H  0.61722731  0.76308153  0.55332866     0.27870
H1762       H  0.66144246  0.68113813  0.39000434     0.27870
H1763       H  0.62599505  0.69366351  0.43991368     0.18460
H1764       H  0.72224084  0.72696143  0.53591583     0.18460
C1765       C  0.52222625  0.71607146  0.62238264    -0.07370
C1766       C  0.48787281  0.73144852  0.63364160    -0.18500
C1767       C  0.47921769  0.73427303  0.67211149     0.09830
C1768       C  0.50536073  0.72098122  0.69899075    -0.07290
C1769       C  0.54109282  0.70996466  0.68742030    -0.18530
C1770       C  0.54968872  0.70711644  0.64973124     0.09860
S1771       S  0.43477267  0.75327132  0.68644425    -0.33490
S1772       S  0.59517049  0.68851242  0.63841406    -0.33500
H1773       H  0.59788937  0.70908595  0.60509364     0.27870
H1774       H  0.42225424  0.76364010  0.65028380     0.27870
H1775       H  0.46695177  0.73844856  0.61249422     0.18460
H1776       H  0.56213352  0.70175482  0.70796780     0.18460
C1777       C  0.39981896  0.70853219  0.49472241    -0.07370
C1778       C  0.37864777  0.69136776  0.52284049    -0.18500
C1779       C  0.34036758  0.69884459  0.52628742     0.09830
C1780       C  0.32198666  0.72201060  0.49956055    -0.07290
C1781       C  0.34447724  0.74268250  0.47467642    -0.18530
C1782       C  0.38322253  0.73677891  0.47248393     0.09860
S1783       S  0.31666425  0.67897800  0.56601123    -0.33490
S1784       S  0.40958146  0.76621033  0.44092168    -0.33500
H1785       H  0.44393014  0.76375073  0.46058957     0.27870
H1786       H  0.30137686  0.71364007  0.57618858     0.27870
H1787       H  0.39193032  0.67170511  0.54199299     0.18460
H1788       H  0.33202584  0.76224638  0.45532280     0.18460
C1789       C  0.51198890  0.70920372  0.38022999    -0.07370
C1790       C  0.54332374  0.72700306  0.36441706    -0.18500
C1791       C  0.54569184  0.73178754  0.32537409     0.09830
C1792       C  0.51684345  0.71714697  0.30197668    -0.07290
C1793       C  0.48399521  0.70331576  0.31830541    -0.18530
C1794       C  0.48122515  0.69920661  0.35688901     0.09860
S1795       S  0.58623276  0.75545459  0.30715124    -0.33490
S1796       S  0.43833662  0.67907731  0.37395792    -0.33500
H1797       H  0.43506240  0.70670914  0.40131074     0.27870
H1798       H  0.56596226  0.78851074  0.30042879     0.27870
H1799       H  0.56663910  0.73566834  0.38230632     0.18460
H1800       H  0.46116487  0.69311878  0.30058277     0.18460
C1801       C  0.61985021  0.47503444  0.27091597    -0.07370
C1802       C  0.63939103  0.44416615  0.28503162    -0.18500
C1803       C  0.67767992  0.43987005  0.27923734     0.09830
C1804       C  0.69807423  0.46802808  0.25994025    -0.07290
C1805       C  0.67795906  0.49734041  0.24266833    -0.18530
C1806       C  0.63898086  0.50129672  0.24808228     0.09860
S1807       S  0.69839610  0.39756160  0.29776534    -0.33490
S1808       S  0.61678806  0.54215760  0.22813170    -0.33500
H1809       H  0.57926484  0.53146642  0.23348586     0.27870
H1810       H  0.72993447  0.39759106  0.27435802     0.27870
H1811       H  0.62461300  0.42303542  0.30113747     0.18460
H1812       H  0.69304359  0.51874124  0.22722324     0.18460
C1813       C  0.38351178  0.49186513  0.26117648    -0.07370
C1814       C  0.37096595  0.46117327  0.23931692    -0.18500
C1815       C  0.33279501  0.45366761  0.23421528     0.09830
C1816       C  0.30652343  0.47712652  0.25136182    -0.07290
C1817       C  0.31880293  0.51104282  0.26730323    -0.18530
C1818       C  0.35691473  0.51856329  0.27278106     0.09860
S1819       S  0.31953932  0.41244605  0.20831660    -0.33490
S1820       S  0.36913386  0.56126382  0.29688187    -0.33500
H1821       H  0.37454684  0.54256921  0.33138332     0.27870
H1822       H  0.31166261  0.43319905  0.17556270     0.27870
H1823       H  0.39077450  0.44126794  0.22811410     0.18460
H1824       H  0.29847399  0.53026863  0.27877567     0.18460
C1825       C  0.51026904  0.27495596  0.24352898    -0.07370
C1826       C  0.54465933  0.28705805  0.25933602    -0.18500
C1827       C  0.55249405  0.32501173  0.26530967     0.09830
C1828       C  0.52484708  0.35188308  0.25616251    -0.07290
C1829       C  0.49283253  0.33997715  0.23562473    -0.18530
C1830       C  0.48532672  0.30202387  0.22897628     0.09860
S1831       S  0.59767960  0.33674008  0.28552100    -0.33490
S1832       S  0.44258422  0.28943504  0.20427138    -0.33500
H1833       H  0.43440757  0.32523602  0.18994599     0.27870
H1834       H  0.60332962  0.36749268  0.26137762     0.27870
H1835       H  0.56498856  0.26658962  0.26883702     0.18460
H1836       H  0.47208380  0.36026759  0.22676308     0.18460
C1837       C  0.51560047  0.58680845  0.26359780    -0.07370
C1838       C  0.54823707  0.60543698  0.27567021    -0.18500
C1839       C  0.55288563  0.64404204  0.27037612     0.09830
C1840       C  0.52332761  0.66581501  0.25472853    -0.07290
C1841       C  0.49136166  0.64661672  0.24085401    -0.18530
C1842       C  0.48767999  0.60754205  0.24422474     0.09860
S1843       S  0.59723252  0.66369162  0.28499530    -0.33490
S1844       S  0.44464006  0.58647302  0.22735258    -0.33500
H1845       H  0.46311929  0.55987204  0.20518244     0.27870
H1846       H  0.59865011  0.68880158  0.25472029     0.27870
H1847       H  0.57020666  0.58978643  0.28989196     0.18460
H1848       H  0.46789109  0.66217290  0.22948320     0.18460
C1849       C  0.50028656  0.24493714  0.60678049    -0.07370
C1850       C  0.53499597  0.25104307  0.62450223    -0.18500
C1851       C  0.53955839  0.24607278  0.66304833     0.09830
C1852       C  0.50919599  0.23222018  0.68464141    -0.07290
C1853       C  0.47562287  0.22212911  0.66605529    -0.18530
C1854       C  0.47018371  0.23043486  0.62792061     0.09860
S1855       S  0.58382689  0.26174878  0.68258194    -0.33490
S1856       S  0.42327027  0.22610970  0.60976852    -0.33500
H1857       H  0.42583821  0.25643819  0.58465699     0.27870
H1858       H  0.58396619  0.23704201  0.71287942     0.27870
H1859       H  0.55825367  0.26243212  0.60863161     0.18460
H1860       H  0.45175558  0.21275609  0.68239264     0.18460
C1861       C  0.49342402  0.23265119  0.36855444    -0.07370
C1862       C  0.46108404  0.23912928  0.34655681    -0.18500
C1863       C  0.46091029  0.23433420  0.30813750     0.09830
C1864       C  0.49458483  0.22533222  0.29045040    -0.07290
C1865       C  0.52577054  0.21405468  0.31203725    -0.18530
C1866       C  0.52520445  0.21667232  0.35138649     0.09860
S1867       S  0.41806878  0.24319976  0.28221719    -0.33490
S1868       S  0.56513866  0.20059109  0.37837544    -0.33500
H1869       H  0.58630363  0.18754983  0.34792577     0.27870
H1870       H  0.39352231  0.24162908  0.31297915     0.27870
H1871       H  0.43627107  0.25098562  0.35870313     0.18460
H1872       H  0.55108382  0.20535342  0.29803557     0.18460
C1873       C  0.38918546  0.22316136  0.48519040    -0.07370
C1874       C  0.37262802  0.21691776  0.52006530    -0.18500
C1875       C  0.33341845  0.21873964  0.52447207     0.09830
C1876       C  0.31031613  0.22731852  0.49293239    -0.07290
C1877       C  0.32673724  0.22815777  0.45738318    -0.18530
C1878       C  0.36550645  0.22496096  0.45324842     0.09860
S1879       S  0.31468396  0.21378969  0.57101593    -0.33490
S1880       S  0.38334619  0.22568449  0.40641387    -0.33500
H1881       H  0.41576009  0.20508451  0.41563659     0.27870
H1882       H  0.34607049  0.19564892  0.58681967     0.27870
H1883       H  0.39049123  0.21395628  0.54406109     0.18460
H1884       H  0.30952076  0.23280820  0.43263919     0.18460
C1885       C  0.62610262  0.25066191  0.51060468    -0.07370
C1886       C  0.64869554  0.24380519  0.54233356    -0.18500
C1887       C  0.68560869  0.22965045  0.53870291     0.09830
C1888       C  0.69977118  0.21899286  0.50267915    -0.07290
C1889       C  0.67480648  0.22123737  0.47226613    -0.18530
C1890       C  0.64099165  0.24076012  0.47494659     0.09860
S1891       S  0.71281058  0.22682481  0.58156151    -0.33490
S1892       S  0.62212009  0.25794853  0.43096586    -0.33500
H1893       H  0.61131013  0.29283567  0.44558770     0.27870
H1894       H  0.74290446  0.20766981  0.56630954     0.27870
H1895       H  0.63807397  0.25047994  0.56995400     0.18460
H1896       H  0.68423995  0.21330956  0.44470205     0.18460
loop_ 
_geom_bond_atom_site_label_1 
_geom_bond_atom_site_label_2 
_geom_bond_distance 
_geom_bond_site_symmetry_2 
_ccdc_geom_bond_type 
O1            C9   1.254       .  A
O1          Co21   1.929       .  S
O2           C10   1.250       .  A
O2          Co22   1.974       .  S
O3           C11   1.283       .  A
O3          Co23   2.064       .  S
O4           C12   1.269       .  A
O4          Co24   2.028       .  S
O5           C11   1.251       .  A
O5          Co22   1.933       .  S
O6           C12   1.251       .  A
O6          Co21   1.959       .  S
O7           C10   1.251       .  A
O7          Co24   1.953       .  S
O8            C9   1.287       .  A
O8          Co23   2.114       .  S
C9           C96   1.480       .  S
C10        C1861   1.477       .  S
C11        C1885   1.507       .  S
C12          C38   1.467       .  S
O13          C26   1.286       .  A
O13         Co21   2.047       .  S
O14          C27   1.269       .  A
O14         Co22   2.016       .  S
O15          C28   1.279       .  A
O15         Co23   1.980       .  S
O16          C29   1.260       .  A
O16         Co24   1.949       .  S
O17          C29   1.279       .  A
O17         Co22   2.052       .  S
O18          C28   1.295       .  A
O18         Co21   2.058       .  S
O19          C26   1.245       .  A
O19         Co24   1.941       .  S
O20          C27   1.260       .  A
O20         Co23   1.970       .  S
Co21         O25   1.991       .  S
Co22         O25   2.060       .  S
Co23         O25   2.088       .  S
Co24         O25   2.078       .  S
C26         C154   1.438       .  S
C27        C1849   1.470       .  S
C28         C144   1.477       .  S
C29        C1873   1.479       .  S
O30          C38   1.248       .  A
O30         Co50   1.990       .  S
O31          C39   1.280       .  A
O31         Co51   2.012       .  S
O32          C40   1.296       .  A
O32         Co52   2.117       .  S
O33          C41   1.267       .  A
O33         Co53   1.965       .  S
O34          C40   1.268       .  A
O34         Co51   1.974       .  S
O35          C41   1.274       .  A
O35         Co50   2.010       .  S
O36          C39   1.269       .  A
O36         Co53   1.944       .  S
O37          C38   1.282       .  A
O37         Co52   2.037       .  S
C39        C1813   1.479       .  S
C40         C157   1.502       .  S
C41        C1828   1.491       .  S
O42          C55   1.261       .  A
O42         Co50   1.978       .  S
O43          C56   1.271       .  A
O43         Co51   1.908       .  S
O44          C57   1.285       .  A
O44         Co52   1.946       .  S
O45          C58   1.257       .  A
O45         Co53   2.004       .  S
O46          C58   1.256       .  A
O46         Co51   1.987       .  S
O47          C57   1.288       .  A
O47         Co50   1.989       .  S
O48          C55   1.264       .  A
O48         Co53   2.005       .  S
O49          C56   1.305       .  A
O49         Co52   2.122       .  S
Co50         O54   2.001       .  S
Co51         O54   1.900       .  S
Co52         O54   2.041       .  S
Co53         O54   2.061       .  S
C55        C1801   1.473       .  S
C56          C67   1.493       .  S
C57         C115   1.454       .  S
C58        C1837   1.486       .  S
O59          C67   1.289       .  A
O59         Co79   2.074       .  S
O60          C68   1.260       .  A
O60         Co80   1.988       .  S
O61          C69   1.250       .  A
O61         Co81   1.975       .  S
O62          C70   1.264       .  A
O62         Co82   1.956       .  S
O63          C69   1.257       .  A
O63         Co80   2.010       .  S
O64          C70   1.278       .  A
O64         Co79   2.003       .  S
O65          C68   1.256       .  A
O65         Co82   1.983       .  S
O66          C67   1.269       .  A
O66         Co81   1.950       .  S
C68        C1753   1.472       .  S
C69        C1789   1.466       .  S
C70         C113   1.451       .  S
O71          C84   1.258       .  A
O71         Co79   2.002       .  S
O72          C85   1.261       .  A
O72         Co80   1.959       .  S
O73          C86   1.283       .  A
O73         Co81   2.062       .  S
O74          C87   1.253       .  A
O74         Co82   1.938       .  S
O75          C87   1.268       .  A
O75         Co80   2.021       .  S
O76          C86   1.274       .  A
O76         Co79   1.880       .  S
O77          C84   1.246       .  A
O77         Co82   1.977       .  S
O78          C85   1.276       .  A
O78         Co81   2.023       .  S
Co79         O83   2.030       .  S
Co80         O83   2.097       .  S
Co81         O83   2.054       .  S
Co82         O83   2.094       .  S
C84         C128   1.464       .  S
C85        C1777   1.466       .  S
C86         C171   1.456       .  S
C87        C1765   1.464       .  S
O88          C96   1.294       .  A
O88        Co108   2.061       .  S
O89          C97   1.267       .  A
O89        Co109   1.943       .  S
O90          C98   1.277       .  A
O90        Co110   1.989       .  S
O91          C99   1.249       .  A
O91        Co111   2.017       .  S
O92          C98   1.263       .  A
O92        Co109   1.950       .  S
O93          C99   1.278       .  A
O93        Co108   2.074       .  S
O94          C97   1.279       .  A
O94        Co111   1.999       .  S
O95          C96   1.263       .  A
O95        Co110   1.983       .  S
C97        C1717   1.477       .  S
C98        C1732   1.467       .  S
C99         C142   1.511       .  S
O100        C113   1.269       .  A
O100       Co108   1.918       .  S
O101        C114   1.262       .  A
O101       Co109   2.018       .  S
O102        C115   1.271       .  A
O102       Co110   1.913       .  S
O103        C116   1.265       .  A
O103       Co111   1.993       .  S
O104        C116   1.260       .  A
O104       Co109   2.005       .  S
O105        C115   1.289       .  A
O105       Co108   2.047       .  S
O106        C113   1.295       .  A
O106       Co111   2.008       .  S
O107        C114   1.258       .  A
O107       Co110   1.986       .  S
Co108       O112   2.000       .  S
Co109       O112   2.067       .  S
Co110       O112   1.925       .  S
Co111       O112   2.038       .  S
C114       C1741   1.491       .  S
C116       C1705   1.488       .  S
O117        C125   1.271       .  A
O117       Co137   2.030       .  S
O118        C126   1.273       .  A
O118       Co138   2.042       .  S
O119        C127   1.265       .  A
O119       Co139   1.994       .  S
O120        C128   1.244       .  A
O120       Co140   1.972       .  S
O121        C127   1.267       .  A
O121       Co138   2.019       .  S
O122        C128   1.267       .  A
O122       Co137   2.032       .  S
O123        C126   1.248       .  A
O123       Co140   1.929       .  S
O124        C125   1.270       .  A
O124       Co139   1.937       .  S
C125        C173   1.439       .  S
C126       C1657   1.483       .  S
C127       C1681   1.495       .  S
O129        C142   1.261       .  A
O129       Co137   1.988       .  S
O130        C143   1.261       .  A
O130       Co138   1.986       .  S
O131        C144   1.293       .  A
O131       Co139   2.116       .  S
O132        C145   1.272       .  A
O132       Co140   2.005       .  S
O133        C145   1.253       .  A
O133       Co138   1.926       .  S
O134        C144   1.269       .  A
O134       Co137   1.903       .  S
O135        C142   1.280       .  A
O135       Co140   2.067       .  S
O136        C143   1.261       .  A
O136       Co139   1.998       .  S
Co137       O141   2.051       .  S
Co138       O141   2.094       .  S
Co139       O141   2.040       .  S
Co140       O141   2.056       .  S
C143       C1696   1.494       .  S
C145       C1669   1.450       .  S
O146        C154   1.292       .  A
O146       Co166   2.020       .  S
O147        C155   1.275       .  A
O147       Co167   2.020       .  S
O148        C156   1.262       .  A
O148       Co168   1.964       .  S
O149        C157   1.244       .  A
O149       Co169   1.922       .  S
O150        C156   1.279       .  A
O150       Co167   2.051       .  S
O151        C157   1.297       .  A
O151       Co166   2.110       .  S
O152        C155   1.262       .  A
O152       Co169   1.940       .  S
O153        C154   1.272       .  A
O153       Co168   1.941       .  S
C155       C1621   1.459       .  S
C156       C1645   1.487       .  S
O158        C171   1.237       .  A
O158       Co166   1.885       .  S
O159        C172   1.251       .  A
O159       Co167   1.961       .  S
O160        C173   1.271       .  A
O160       Co168   2.071       .  S
O161        C174   1.250       .  A
O161       Co169   1.955       .  S
O162        C174   1.256       .  A
O162       Co167   1.984       .  S
O163        C173   1.253       .  A
O163       Co166   1.905       .  S
O164        C171   1.278       .  A
O164       Co169   2.049       .  S
O165        C172   1.267       .  A
O165       Co168   2.016       .  S
Co166       O170   2.000       .  S
Co167       O170   2.056       .  S
Co168       O170   2.037       .  S
Co169       O170   2.055       .  S
C172       C1609   1.491       .  S
C174       C1633   1.479       .  S
O175        C183   1.282   1_554  A
O175       Co195   1.992       .  S
O176        C184   1.267       .  A
O176       Co196   2.022   1_554  S
O177        C185   1.259       .  A
O177       Co197   1.983   1_554  S
O178        C186   1.277       .  A
O178       Co198   2.040       .  S
O179        C185   1.259   1_556  A
O179       Co196   1.994       .  S
O180        C186   1.266       .  A
O180       Co195   1.893       .  S
O181        C184   1.253       .  A
O181       Co198   1.954       .  S
O182        C183   1.294       .  A
O182       Co197   2.031       .  S
C183        C328   1.467       .  S
C184       C1585   1.490       .  S
C185       C1573   1.474       .  S
C186        C270   1.422       .  S
O187        C200   1.290       .  A
O187       Co195   2.077       .  S
O188        C201   1.268       .  A
O188       Co196   1.953       .  S
O189        C202   1.244       .  A
O189       Co197   2.004       .  S
O190        C203   1.260       .  A
O190       Co198   1.935       .  S
O191        C203   1.264   1_556  A
O191       Co196   1.992       .  S
O192        C202   1.279       .  A
O192       Co195   2.086   1_556  S
O193        C200   1.255       .  A
O193       Co198   1.955       .  S
O194        C201   1.275       .  A
O194       Co197   2.001       .  S
Co195       O199   1.929   1_554  S
Co196       O199   2.094       .  S
Co197       O199   2.045       .  S
Co198       O199   2.104   1_554  S
C200        C299   1.470   1_554  S
C201       C1597   1.478       .  S
C202        C212   1.498       .  S
C203       C1564   1.476       .  S
O204        C212   1.310       .  A
O204       Co224   2.150       .  S
O205        C213   1.275       .  A
O205       Co225   2.034       .  S
O206        C214   1.283   1_655  A
O206       Co226   2.023   1_655  S
O207        C215   1.247       .  A
O207       Co227   1.948   1_655  S
O208        C214   1.271       .  A
O208       Co225   2.014       .  S
O209        C215   1.255       .  A
O209       Co224   1.993       .  S
O210        C213   1.249       .  A
O210       Co227   1.920       .  S
O211        C212   1.262       .  A
O211       Co226   1.889   1_655  S
C213       C1537   1.483       .  S
C214        C331   1.501       .  S
C215       C1549   1.476       .  S
O216        C229   1.261       .  A
O216       Co224   1.980   1_455  S
O217        C230   1.250       .  A
O217       Co225   1.936       .  S
O218        C231   1.306   1_455  A
O218       Co226   2.154       .  S
O219        C232   1.269       .  A
O219       Co227   2.060       .  S
O220        C232   1.246       .  A
O220       Co225   1.954       .  S
O221        C231   1.252       .  A
O221       Co224   1.877       .  S
O222        C229   1.274       .  A
O222       Co227   2.044       .  S
O223        C230   1.252       .  A
O223       Co226   1.996       .  S
Co224       O228   2.037   1_655  S
Co225       O228   2.036       .  S
Co226       O228   2.053       .  S
Co227       O228   2.106       .  S
C229       C1525   1.492       .  S
C230        C260   1.437       .  S
C231        C318   1.469       .  S
C232       C1513   1.498       .  S
O233        C241   1.233       .  A
O233       Co253   1.900   1_556  S
O234        C242   1.255       .  A
O234       Co254   1.942       .  S
O235        C243   1.254       .  A
O235       Co255   1.979       .  S
O236        C244   1.290       .  A
O236       Co256   2.138       .  S
O237        C243   1.259   1_554  A
O237       Co254   1.988       .  S
O238        C244   1.249       .  A
O238       Co253   1.922       .  S
O239        C242   1.273       .  A
O239       Co256   2.029       .  S
O240        C241   1.271       .  A
O240       Co255   2.023       .  S
C241        C316   1.438       .  S
C242       C1480   1.478       .  S
C243       C1504   1.491       .  S
C244        C288   1.480       .  S
O245        C258   1.287   1_556  A
O245       Co253   2.045   1_556  S
O246        C259   1.278       .  A
O246       Co254   2.056   1_556  S
O247        C260   1.243       .  A
O247       Co255   1.919       .  S
O248        C261   1.267       .  A
O248       Co256   1.981   1_556  S
O249        C261   1.276   1_554  A
O249       Co254   2.029       .  S
O250        C260   1.287       .  A
O250       Co253   2.051   1_556  S
O251        C258   1.276       .  A
O251       Co256   1.941       .  S
O252        C259   1.256       .  A
O252       Co255   1.956       .  S
Co253       O257   2.002   1_554  S
Co254       O257   2.061   1_554  S
Co255       O257   2.069       .  S
Co256       O257   2.066   1_554  S
C258        C345   1.452       .  S
C259       C1465   1.485       .  S
C261       C1489   1.488       .  S
O262        C270   1.265       .  A
O262       Co282   1.902       .  S
O263        C271   1.258       .  A
O263       Co283   1.954       .  S
O264        C272   1.285       .  A
O264       Co284   2.063       .  S
O265        C273   1.260       .  A
O265       Co285   2.003   1_655  S
O266        C272   1.256       .  A
O266       Co283   1.963       .  S
O267        C273   1.257       .  A
O267       Co282   2.001       .  S
O268        C271   1.262   1_655  A
O268       Co285   1.992   1_655  S
O269        C270   1.282       .  A
O269       Co284   2.045   1_655  S
C271       C1453   1.481       .  S
C272        C302   1.484       .  S
C273       C1417   1.489       .  S
O274        C287   1.267       .  A
O274       Co282   2.010       .  S
O275        C288   1.259       .  A
O275       Co283   2.020       .  S
O276        C289   1.272       .  A
O276       Co284   1.929       .  S
O277        C290   1.254       .  A
O277       Co285   1.953       .  S
O278        C290   1.257       .  A
O278       Co283   1.937       .  S
O279        C289   1.293   1_655  A
O279       Co282   2.094       .  S
O280        C287   1.257   1_455  A
O280       Co285   1.972       .  S
O281        C288   1.256       .  A
O281       Co284   1.993       .  S
Co282       O286   2.056   1_655  S
Co283       O286   2.098       .  S
Co284       O286   2.038       .  S
Co285       O286   2.110       .  S
C287       C1441   1.490       .  S
C289        C347   1.495   1_455  S
C290       C1429   1.433       .  S
O291        C299   1.266       .  A
O291       Co311   1.901   1_656  S
O292        C300   1.255   1_655  A
O292       Co312   1.929       .  S
O293        C301   1.266       .  A
O293       Co313   2.039       .  S
O294        C302   1.286       .  A
O294       Co314   2.067       .  S
O295        C301   1.247   1_554  A
O295       Co312   1.951       .  S
O296        C302   1.260   1_655  A
O296       Co311   1.960   1_655  S
O297        C300   1.276       .  A
O297       Co314   2.035       .  S
O298        C299   1.301       .  A
O298       Co313   2.109       .  S
C300       C1408   1.479       .  S
C301       C1369   1.503       .  S
O303        C316   1.266   1_554  A
O303       Co311   1.988       .  S
O304        C317   1.278   1_655  A
O304       Co312   2.033   1_556  S
O305        C318   1.267       .  A
O305       Co313   1.920       .  S
O306        C319   1.239   1_556  A
O306       Co314   1.946   1_556  S
O307        C319   1.268       .  A
O307       Co312   2.052   1_455  S
O308        C318   1.278   1_455  A
O308       Co311   2.064   1_556  S
O309        C316   1.235       .  A
O309       Co314   1.945   1_556  S
O310        C317   1.263       .  A
O310       Co313   1.954   1_455  S
Co311       O315   2.026       .  S
Co312       O315   2.061   1_655  S
Co313       O315   2.029   1_656  S
Co314       O315   2.025       .  S
C317       C1384   1.474       .  S
C319       C1393   1.479       .  S
O320        C328   1.268       .  A
O320       Co340   1.876   1_655  S
O321        C329   1.260       .  A
O321       Co341   1.947       .  S
O322        C330   1.268       .  A
O322       Co342   2.013       .  S
O323        C331   1.286       .  A
O323       Co343   2.070       .  S
O324        C330   1.254   1_556  A
O324       Co341   1.953   1_655  S
O325        C331   1.258   1_655  A
O325       Co340   1.965   1_655  S
O326        C329   1.273       .  A
O326       Co343   2.034       .  S
O327        C328   1.299   1_554  A
O327       Co342   2.135       .  S
C329       C1348   1.491       .  S
C330       C1321   1.469       .  S
O332        C345   1.275   1_556  A
O332       Co340   2.038       .  S
O333        C346   1.279       .  A
O333       Co341   2.037   1_554  S
O334        C347   1.272       .  A
O334       Co342   1.943       .  S
O335        C348   1.240       .  A
O335       Co343   1.935   1_554  S
O336        C348   1.270   1_556  A
O336       Co341   2.057       .  S
O337        C347   1.285   1_455  A
O337       Co340   2.094   1_554  S
O338        C345   1.236       .  A
O338       Co343   1.935   1_554  S
O339        C346   1.274       .  A
O339       Co342   1.978   1_455  S
Co340       O344   2.013       .  S
Co341       O344   2.057       .  S
Co342       O344   2.020   1_654  S
Co343       O344   2.020       .  S
C346       C1360   1.500       .  S
C348       C1336   1.478       .  S
O349        C357   1.265       .  A
O349       Co369   1.964       .  S
O350        C358   1.280       .  A
O350       Co370   2.026       .  S
O351        C359   1.271       .  A
O351       Co371   2.052   1_554  S
O352        C360   1.258   1_554  A
O352       Co372   1.957       .  S
O353        C359   1.245       .  A
O353       Co370   1.993       .  S
O354        C360   1.266       .  A
O354       Co369   2.005       .  S
O355        C358   1.252       .  A
O355       Co372   1.920       .  S
O356        C357   1.301       .  A
O356       Co371   2.115       .  S
C357        C502   1.495   1_556  S
C358       C1297   1.481       .  S
C359        C444   1.485       .  S
C360       C1285   1.490       .  S
O361        C374   1.246       .  A
O361       Co369   1.943       .  S
O362        C375   1.295       .  A
O362       Co370   2.015       .  S
O363        C376   1.271       .  A
O363       Co371   1.922       .  S
O364        C377   1.262   1_554  A
O364       Co372   2.010       .  S
O365        C377   1.266       .  A
O365       Co370   1.991   1_556  S
O366        C376   1.276       .  A
O366       Co369   2.034       .  S
O367        C374   1.259       .  A
O367       Co372   2.021   1_556  S
O368        C375   1.297   1_556  A
O368       Co371   2.032       .  S
Co369       O373   2.087   1_556  S
Co370       O373   2.048       .  S
Co371       O373   1.963   1_556  S
Co372       O373   2.109       .  S
C374       C1309   1.470       .  S
C375        C473   1.502       .  S
C376        C405   1.452       .  S
C377       C1273   1.498       .  S
O378        C386   1.293       .  A
O378       Co398   2.094       .  S
O379        C387   1.264       .  A
O379       Co399   1.960   1_545  S
O380        C388   1.270       .  A
O380       Co400   2.000       .  S
O381        C389   1.248       .  A
O381       Co401   1.989       .  S
O382        C388   1.255       .  A
O382       Co399   1.935       .  S
O383        C389   1.272       .  A
O383       Co398   2.055   1_545  S
O384        C387   1.280       .  A
O384       Co401   2.041       .  S
O385        C386   1.266       .  A
O385       Co400   1.965       .  S
C386        C504   1.488       .  S
C387       C1249   1.505       .  S
C388       C1225   1.474       .  S
C389        C415   1.490       .  S
O390        C403   1.282       .  A
O390       Co398   1.962       .  S
O391        C404   1.266       .  A
O391       Co399   2.038       .  S
O392        C405   1.284       .  A
O392       Co400   2.073       .  S
O393        C406   1.258       .  A
O393       Co401   1.981   1_565  S
O394        C406   1.259       .  A
O394       Co399   1.998       .  S
O395        C405   1.263       .  A
O395       Co398   1.925       .  S
O396        C403   1.289   1_545  A
O396       Co401   2.006       .  S
O397        C404   1.248       .  A
O397       Co400   1.944       .  S
Co398       O402   1.907       .  S
Co399       O402   2.099       .  S
Co400       O402   2.101       .  S
Co401       O402   2.038   1_545  S
C403        C476   1.441       .  S
C404       C1264   1.487       .  S
C406       C1240   1.475       .  S
O407        C415   1.268       .  A
O407       Co427   2.015   1_556  S
O408        C416   1.303   1_556  A
O408       Co428   2.077       .  S
O409        C417   1.269       .  A
O409       Co429   1.863       .  S
O410        C418   1.249       .  A
O410       Co430   2.005   1_556  S
O411        C417   1.296       .  A
O411       Co428   2.079       .  S
O412        C418   1.279   1_554  A
O412       Co427   2.028       .  S
O413        C416   1.279       .  A
O413       Co430   1.885       .  S
O414        C415   1.268       .  A
O414       Co429   2.006       .  S
C416       C1177   1.467       .  S
C417       C1201   1.453       .  S
C418        C520   1.484       .  S
O419        C432   1.250       .  A
O419       Co427   1.968       .  S
O420        C433   1.256       .  A
O420       Co428   2.001       .  S
O421        C434   1.271       .  A
O421       Co429   2.015       .  S
O422        C435   1.241       .  A
O422       Co430   1.955       .  S
O423        C435   1.243       .  A
O423       Co428   1.988   1_554  S
O424        C434   1.253   1_554  A
O424       Co427   1.945       .  S
O425        C432   1.288       .  A
O425       Co430   2.097       .  S
O426        C433   1.248       .  A
O426       Co429   1.973       .  S
Co427       O431   2.034       .  S
Co428       O431   2.207   1_556  S
Co429       O431   1.963   1_556  S
Co430       O431   1.930       .  S
C432        C461   1.503       .  S
C433       C1189   1.480       .  S
C434        C490   1.440       .  S
C435       C1216   1.456       .  S
O436        C444   1.296       .  A
O436       Co456   2.101       .  S
O437        C445   1.269       .  A
O437       Co457   2.041       .  S
O438        C446   1.263       .  A
O438       Co458   1.966       .  S
O439        C447   1.247       .  A
O439       Co459   1.955   1_565  S
O440        C446   1.278       .  A
O440       Co457   2.042       .  S
O441        C447   1.254       .  A
O441       Co456   2.010       .  S
O442        C445   1.250       .  A
O442       Co459   1.949   1_565  S
O443        C444   1.271       .  A
O443       Co458   1.927       .  S
C445       C1153   1.470       .  S
C446       C1141   1.482       .  S
C447        C492   1.455       .  S
O448        C461   1.257       .  A
O448       Co456   1.980   1_545  S
O449        C462   1.252       .  A
O449       Co457   1.947       .  S
O450        C463   1.290       .  A
O450       Co458   2.084       .  S
O451        C464   1.264       .  A
O451       Co459   2.004       .  S
O452        C464   1.257       .  A
O452       Co457   1.955   1_545  S
O453        C463   1.255       .  A
O453       Co456   1.818       .  S
O454        C461   1.291       .  A
O454       Co459   2.080       .  S
O455        C462   1.274       .  A
O455       Co458   2.049       .  S
Co456       O460   1.997       .  S
Co457       O460   2.060       .  S
Co458       O460   2.027       .  S
Co459       O460   2.027   1_545  S
C462       C1168   1.505       .  S
C463        C521   1.404       .  S
C464       C1129   1.471       .  S
O465        C473   1.278   1_556  A
O465       Co485   1.987       .  S
O466        C474   1.250       .  A
O466       Co486   1.963       .  S
O467        C475   1.272       .  A
O467       Co487   2.024       .  S
O468        C476   1.291       .  A
O468       Co488   2.083   1_565  S
O469        C475   1.253   1_556  A
O469       Co486   1.915       .  S
O470        C476   1.259       .  A
O470       Co485   1.846       .  S
O471        C474   1.263   1_545  A
O471       Co488   2.021       .  S
O472        C473   1.281       .  A
O472       Co487   2.054       .  S
C474       C1105   1.482       .  S
C475       C1081   1.454       .  S
O477        C490   1.287       .  A
O477       Co485   2.067   1_545  S
O478        C491   1.266       .  A
O478       Co486   2.038   1_554  S
O479        C492   1.254       .  A
O479       Co487   1.971       .  S
O480        C493   1.254   1_554  A
O480       Co488   1.959   1_554  S
O481        C493   1.275       .  A
O481       Co486   2.045   1_545  S
O482        C492   1.250       .  A
O482       Co485   1.988   1_554  S
O483        C490   1.267       .  A
O483       Co488   1.916       .  S
O484        C491   1.245       .  A
O484       Co487   1.948       .  S
Co485       O489   1.995   1_556  S
Co486       O489   2.089   1_556  S
Co487       O489   2.044       .  S
Co488       O489   2.044   1_546  S
C491       C1117   1.471       .  S
C493       C1093   1.478       .  S
O494        C502   1.270       .  A
O494       Co514   1.984       .  S
O495        C503   1.284   1_545  A
O495       Co515   2.027       .  S
O496        C504   1.267       .  A
O496       Co516   2.052   1_556  S
O497        C505   1.264   1_556  A
O497       Co517   1.989       .  S
O498        C504   1.244       .  A
O498       Co515   1.992   1_565  S
O499        C505   1.262       .  A
O499       Co514   1.964       .  S
O500        C503   1.265       .  A
O500       Co517   1.946       .  S
O501        C502   1.289   1_556  A
O501       Co516   2.079   1_556  S
C503       C1057   1.486       .  S
C505       C1048   1.489       .  S
O506        C519   1.254       .  A
O506       Co514   1.967       .  S
O507        C520   1.300       .  A
O507       Co515   2.061       .  S
O508        C521   1.259       .  A
O508       Co516   1.868       .  S
O509        C522   1.262   1_556  A
O509       Co517   1.996   1_545  S
O510        C522   1.268       .  A
O510       Co515   1.991   1_554  S
O511        C521   1.268       .  A
O511       Co514   2.025       .  S
O512        C519   1.270       .  A
O512       Co517   2.046   1_554  S
O513        C520   1.278   1_554  A
O513       Co516   1.971   1_545  S
Co514       O518   2.101   1_554  S
Co515       O518   2.081   1_545  S
Co516       O518   1.893   1_554  S
Co517       O518   2.078       .  S
C519       C1072   1.493       .  S
C522       C1033   1.488       .  S
O523        C531   1.254       .  A
O523       Co543   1.849       .  S
O524        C532   1.260       .  A
O524       Co544   1.949       .  S
O525        C533   1.268       .  A
O525       Co545   2.021       .  S
O526        C534   1.278       .  A
O526       Co546   2.029       .  S
O527        C533   1.254   1_455  A
O527       Co544   1.971       .  S
O528        C534   1.275       .  A
O528       Co543   1.989       .  S
O529        C532   1.269       .  A
O529       Co546   2.015       .  S
O530        C531   1.304   1_655  A
O530       Co545   2.162       .  S
C531        C676   1.486       .  S
C532        C985   1.488       .  S
C533       C1009   1.500       .  S
C534        C589   1.484       .  S
O535        C548   1.249       .  A
O535       Co543   1.984       .  S
O536        C549   1.277       .  A
O536       Co544   2.039   1_655  S
O537        C550   1.270       .  A
O537       Co545   1.921       .  S
O538        C551   1.255       .  A
O538       Co546   1.952       .  S
O539        C551   1.274       .  A
O539       Co544   2.045       .  S
O540        C550   1.293       .  A
O540       Co543   2.093   1_655  S
O541        C548   1.258       .  A
O541       Co546   1.982       .  S
O542        C549   1.261       .  A
O542       Co545   1.974       .  S
Co543       O547   1.980       .  S
Co544       O547   2.050       .  S
Co545       O547   2.044   1_655  S
Co546       O547   2.044       .  S
C548        C647   1.456       .  S
C549       C1024   1.489       .  S
C550        C560   1.464       .  S
C551        C997   1.482       .  S
O552        C560   1.275       .  A
O552       Co572   2.043       .  S
O553        C561   1.266   1_545  A
O553       Co573   2.005       .  S
O554        C562   1.251       .  A
O554       Co574   1.901       .  S
O555        C563   1.251       .  A
O555       Co575   1.993       .  S
O556        C562   1.289       .  A
O556       Co573   2.130   1_565  S
O557        C563   1.244       .  A
O557       Co572   1.951       .  S
O558        C561   1.262       .  A
O558       Co575   1.966       .  S
O559        C560   1.250       .  A
O559       Co574   1.949       .  S
C561        C961   1.491       .  S
C562        C679   1.466       .  S
C563        C973   1.468       .  S
O564        C577   1.263       .  A
O564       Co572   1.941       .  S
O565        C578   1.267       .  A
O565       Co573   1.914       .  S
O566        C579   1.282       .  A
O566       Co574   2.015       .  S
O567        C580   1.267       .  A
O567       Co575   2.009   1_545  S
O568        C580   1.267       .  A
O568       Co573   1.981       .  S
O569        C579   1.245       .  A
O569       Co572   1.918       .  S
O570        C577   1.291       .  A
O570       Co575   2.077       .  S
O571        C578   1.305       .  A
O571       Co574   2.095   1_545  S
Co572       O576   2.065       .  S
Co573       O576   2.046   1_545  S
Co574       O576   1.999       .  S
Co575       O576   2.042       .  S
C577        C949   1.492       .  S
C578        C618   1.479       .  S
C579        C666   1.438       .  S
C580        C940   1.483       .  S
O581        C589   1.286       .  A
O581       Co601   2.083       .  S
O582        C590   1.262       .  A
O582       Co602   1.988       .  S
O583        C591   1.254       .  A
O583       Co603   1.990       .  S
O584        C592   1.256       .  A
O584       Co604   1.955   1_565  S
O585        C591   1.257       .  A
O585       Co602   1.982       .  S
O586        C592   1.270       .  A
O586       Co601   1.992       .  S
O587        C590   1.258   1_545  A
O587       Co604   1.975       .  S
O588        C589   1.268       .  A
O588       Co603   1.943       .  S
C590        C889   1.473       .  S
C591        C913   1.459       .  S
C592        C695   1.430       .  S
O593        C606   1.253       .  A
O593       Co601   1.992   1_545  S
O594        C607   1.263       .  A
O594       Co602   1.961       .  S
O595        C608   1.296       .  A
O595       Co603   2.116       .  S
O596        C609   1.254       .  A
O596       Co604   1.933       .  S
O597        C609   1.261       .  A
O597       Co602   1.997   1_545  S
O598        C608   1.266       .  A
O598       Co601   1.934       .  S
O599        C606   1.253       .  A
O599       Co604   1.995       .  S
O600        C607   1.274       .  A
O600       Co603   2.010       .  S
Co601       O605   2.041       .  S
Co602       O605   2.093       .  S
Co603       O605   2.050       .  S
Co604       O605   2.077   1_545  S
C606        C635   1.454       .  S
C607        C925   1.477       .  S
C608        C650   1.493       .  S
C609        C901   1.461       .  S
O610        C618   1.279       .  A
O610       Co630   2.030   1_655  S
O611        C619   1.250       .  A
O611       Co631   1.986       .  S
O612        C620   1.250       .  A
O612       Co632   1.959       .  S
O613        C621   1.260       .  A
O613       Co633   1.942       .  S
O614        C620   1.262       .  A
O614       Co631   2.009   1_655  S
O615        C621   1.293       .  A
O615       Co630   2.084       .  S
O616        C619   1.248   1_655  A
O616       Co633   1.985   1_655  S
O617        C618   1.271       .  A
O617       Co632   1.984       .  S
C619        C880   1.453       .  S
C620        C853   1.487       .  S
C621        C664   1.473       .  S
O622        C635   1.270       .  A
O622       Co630   1.908       .  S
O623        C636   1.266       .  A
O623       Co631   2.003   1_655  S
O624        C637   1.247   1_655  A
O624       Co632   1.947       .  S
O625        C638   1.269       .  A
O625       Co633   2.000       .  S
O626        C638   1.268       .  A
O626       Co631   1.981       .  S
O627        C637   1.260       .  A
O627       Co630   2.044       .  S
O628        C635   1.294       .  A
O628       Co633   2.078       .  S
O629        C636   1.264       .  A
O629       Co632   1.972       .  S
Co630       O634   2.069       .  S
Co631       O634   2.115       .  S
Co632       O634   2.070   1_655  S
Co633       O634   2.027       .  S
C636        C841   1.469   1_655  S
C637        C693   1.481       .  S
C638        C868   1.493       .  S
O639        C647   1.278       .  A
O639       Co659   2.055   1_455  S
O640        C648   1.265       .  A
O640       Co660   1.942       .  S
O641        C649   1.287       .  A
O641       Co661   2.042       .  S
O642        C650   1.264       .  A
O642       Co662   1.989   1_565  S
O643        C649   1.271   1_455  A
O643       Co660   1.972       .  S
O644        C650   1.296       .  A
O644       Co659   2.084   1_455  S
O645        C648   1.280   1_545  A
O645       Co662   1.998       .  S
O646        C647   1.238   1_655  A
O646       Co661   1.957       .  S
C648        C793   1.462       .  S
C649        C808   1.508       .  S
O651        C664   1.283       .  A
O651       Co659   2.047   1_445  S
O652        C665   1.262       .  A
O652       Co660   2.012   1_655  S
O653        C666   1.300       .  A
O653       Co661   1.987       .  S
O654        C667   1.259       .  A
O654       Co662   1.981       .  S
O655        C667   1.261       .  A
O655       Co660   2.000   1_545  S
O656        C666   1.266       .  A
O656       Co659   1.923       .  S
O657        C664   1.275       .  A
O657       Co662   1.931       .  S
O658        C665   1.257       .  A
O658       Co661   1.973       .  S
Co659       O663   2.030   1_655  S
Co660       O663   2.058       .  S
Co661       O663   1.990   1_655  S
Co662       O663   1.925   1_545  S
C665        C817   1.480       .  S
C667        C829   1.480   1_455  S
O668        C676   1.253       .  A
O668       Co688   1.897       .  S
O669        C677   1.258       .  A
O669       Co689   1.995   1_655  S
O670        C678   1.271       .  A
O670       Co690   1.990       .  S
O671        C679   1.253       .  A
O671       Co691   2.010   1_565  S
O672        C678   1.275       .  A
O672       Co689   1.977       .  S
O673        C679   1.246       .  A
O673       Co688   1.968   1_655  S
O674        C677   1.253       .  A
O674       Co691   1.946   1_565  S
O675        C676   1.294       .  A
O675       Co690   2.146       .  S
C677        C745   1.458       .  S
C678        C781   1.486       .  S
O680        C693   1.279       .  A
O680       Co688   2.016   1_545  S
O681        C694   1.249       .  A
O681       Co689   1.985       .  S
O682        C695   1.273       .  A
O682       Co690   1.937       .  S
O683        C696   1.268   1_655  A
O683       Co691   1.987       .  S
O684        C696   1.276       .  A
O684       Co689   2.003   1_545  S
O685        C695   1.289       .  A
O685       Co688   2.010       .  S
O686        C693   1.281   1_655  A
O686       Co691   2.011       .  S
O687        C694   1.259       .  A
O687       Co690   2.019       .  S
Co688       O692   1.995       .  S
Co689       O692   2.083       .  S
Co690       O692   2.038       .  S
Co691       O692   2.021   1_645  S
C694        C769   1.492       .  S
C696        C757   1.502       .  S
C697        C698   1.361   1_455  D
C697       C1405   1.479       .  S
C697       C1456   1.497       .  S
C698        C832   1.505       .  S
C698        C877   1.482   1_655  S
C699        C700   1.382       .  D
C699       C1069   1.511       .  S
C699       C1165   1.504       .  S
C700        C820   1.515       .  S
C700        C952   1.521       .  S
C701        C702   1.375       .  D
C701       C1357   1.508   1_655  S
C701       C1444   1.500       .  S
C702        C805   1.510       .  S
C702       C1000   1.505       .  S
C703        C704   1.355       .  D
C703       C1120   1.504       .  S
C703       C1156   1.494       .  S
C704        C796   1.473       .  S
C704        C928   1.487       .  S
C705        C706   1.363       .  D
C705        C865   1.497       .  S
C705        C904   1.487       .  S
C706       C1648   1.487       .  S
C706       C1876   1.502       .  S
C707        C708   1.374       .  D
C707       C1729   1.481       .  S
C707       C1888   1.512       .  S
C708        C856   1.510       .  S
C708        C937   1.499       .  S
C709        C710   1.361       .  D
C709       C1636   1.488       .  S
C709       C1780   1.501       .  S
C710        C916   1.485       .  S
C710        C988   1.492       .  S
C711        C712   1.371       .  D
C711        C772   1.510       .  S
C711        C892   1.491       .  S
C712       C1108   1.499       .  S
C712       C1237   1.504       .  S
C713        C714   1.369       .  D
C713       C1396   1.508       .  S
C713       C1501   1.494       .  S
C714       C1096   1.490       .  S
C714       C1192   1.510       .  S
C715        C716   1.372       .  D
C715       C1333   1.507       .  S
C715       C1492   1.500   1_554  S
C716       C1084   1.482       .  S
C716       C1276   1.509       .  S
C717        C718   1.365       .  D
C717       C1792   1.481       .  S
C717       C1840   1.515       .  S
C718       C1144   1.500       .  S
C718       C1300   1.482       .  S
C719        C720   1.348       .  D
C719       C1825   1.493       .  S
C719       C1864   1.471       .  S
C720       C1132   1.486       .  S
C720       C1213   1.475       .  S
C721        C722   1.366       .  D
C721       C1693   1.503       .  S
C721       C1852   1.487       .  S
C722       C1204   1.478       .  S
C722       C1252   1.509       .  S
C723        C724   1.370       .  D
C723       C1381   1.497       .  S
C723       C1528   1.512       .  S
C724        C760   1.500       .  S
C724        C844   1.495       .  S
C725        C726   1.369       .  D
C725       C1372   1.504   1_554  S
C725       C1561   1.487       .  S
C726       C1036   1.500       .  S
C726       C1180   1.494       .  S
C727        C728   1.352       .  D
C727       C1624   1.491       .  S
C727       C1816   1.477       .  S
C728       C1432   1.476       .  S
C728       C1477   1.493       .  S
C729        C730   1.377       .  D
C729       C1420   1.508       .  S
C729       C1588   1.514       .  S
C730       C1744   1.513       .  S
C730       C1804   1.497       .  S
C731        C732   1.373       .  D
C731       C1612   1.496       .  S
C731       C1684   1.505       .  S
C732       C1468   1.507       .  S
C732       C1516   1.513       .  S
C733        C734   1.363       .  D
C733       C1345   1.498       .  S
C733       C1540   1.483       .  S
C734        C784   1.490       .  S
C734       C1012   1.508       .  S
C735        C736   1.364       .  D
C735        C748   1.487       .  S
C735        C964   1.506       .  S
C736       C1060   1.497   1_565  S
C736       C1228   1.480       .  S
C737        C738   1.358       .  D
C737       C1324   1.491       .  S
C737       C1576   1.492       .  S
C738       C1045   1.481       .  S
C738       C1288   1.493       .  S
C739        C740   1.351       .  D
C739       C1672   1.483       .  S
C739       C1720   1.483       .  S
C740       C1552   1.470       .  S
C740       C1600   1.478       .  S
C741        C742   1.372       .  D
C741       C1708   1.486       .  S
C741       C1756   1.506       .  S
C742        C976   1.493       .  S
C742       C1021   1.498       .  S
C743        C744   1.365       .  D
C743       C1660   1.508       .  S
C743       C1768   1.481       .  S
C744       C1261   1.510       .  S
C744       C1312   1.495       .  S
C745        C746   1.396       .  A
C745        C750   1.410   1_565  A
C746        C747   1.390       .  A
C746        H755   1.085       .  S
C747        C748   1.414       .  A
C747        S751   1.797       .  S
C748        C749   1.404   1_565  A
C749        C750   1.397       .  A
C749        H756   1.082       .  S
C750        S752   1.800       .  S
S751        H754   1.398       .  S
S752        H753   1.405       .  S
C757        C758   1.411       .  A
C757        C762   1.426   1_455  A
C758        C759   1.413       .  A
C758        H767   1.083       .  S
C759        C760   1.418       .  A
C759        S763   1.805       .  S
C760        C761   1.398   1_455  A
C761        C762   1.389       .  A
C761        H768   1.083       .  S
C762        S764   1.806       .  S
S763        H766   1.401       .  S
S764        H765   1.408       .  S
C769        C770   1.396   1_565  A
C769        C774   1.422       .  A
C770        C771   1.401       .  A
C770        H779   1.084       .  S
C771        C772   1.423   1_545  A
C771        S775   1.797       .  S
C772        C773   1.403       .  A
C773        C774   1.406       .  A
C773        H780   1.083       .  S
C774        S776   1.798       .  S
S775        H778   1.399       .  S
S776        H777   1.406       .  S
C781        C782   1.409       .  A
C781        C786   1.420       .  A
C782        C783   1.402       .  A
C782        H791   1.082   1_455  S
C783        C784   1.410       .  A
C783        S787   1.800   1_455  S
C784        C785   1.402       .  A
C785        C786   1.390       .  A
C785        H792   1.083       .  S
C786        S788   1.806       .  S
S787        H790   1.406       .  S
S788        H789   1.400       .  S
C793        C794   1.397   1_565  A
C793        C798   1.418       .  A
C794        C795   1.390       .  A
C794        H803   1.084       .  S
C795        C796   1.418   1_545  A
C795        S799   1.807       .  S
C796        C797   1.396       .  A
C797        C798   1.389       .  A
C797        H804   1.081       .  S
C798        S800   1.805       .  S
S799        H802   1.396       .  S
S800        H801   1.408       .  S
C805        C806   1.411       .  A
C805        C810   1.417   1_655  A
C806        C807   1.407       .  A
C806        H815   1.077       .  S
C807        C808   1.413       .  A
C807        S811   1.800       .  S
C808        C809   1.414   1_655  A
C809        C810   1.407       .  A
C809        H816   1.083       .  S
C810        S812   1.804       .  S
S811        H814   1.407       .  S
S812        H813   1.390       .  S
C817        C818   1.400       .  A
C817        C822   1.411       .  A
C818        C819   1.401       .  A
C818        H827   1.082       .  S
C819        C820   1.418       .  A
C819        S823   1.807       .  S
C820        C821   1.412       .  A
C821        C822   1.408       .  A
C821        H828   1.075   1_565  S
C822        S824   1.804   1_565  S
S823        H826   1.407       .  S
S824        H825   1.402       .  S
C829        C830   1.399       .  A
C829        C834   1.413   1_655  A
C830        C831   1.397       .  A
C830        H839   1.084       .  S
C831        C832   1.419       .  A
C831        S835   1.804       .  S
C832        C833   1.408   1_655  A
C833        C834   1.404       .  A
C833        H840   1.077       .  S
C834        S836   1.800       .  S
S835        H838   1.402       .  S
S836        H837   1.406       .  S
C841        C842   1.400   1_455  A
C841        C846   1.407       .  A
C842        C843   1.404       .  A
C842        H851   1.082       .  S
C843        C844   1.415   1_655  A
C843        S847   1.800       .  S
C844        C845   1.408       .  A
C845        C846   1.397       .  A
C845        H852   1.082       .  S
C846        S848   1.804       .  S
S847        H850   1.407       .  S
S848        H849   1.403       .  S
C853        C854   1.400       .  A
C853        C858   1.416       .  A
C854        C855   1.409       .  A
C854        H863   1.080       .  S
C855        C856   1.420       .  A
C855        S859   1.793       .  S
C856        C857   1.402       .  A
C857        C858   1.394       .  A
C857        H864   1.078       .  S
C858        S860   1.805       .  S
S859        H862   1.408       .  S
S860        H861   1.407       .  S
C865        C866   1.404       .  A
C865        C870   1.420       .  A
C866        C867   1.393       .  A
C866        H875   1.083       .  S
C867        C868   1.418       .  A
C867        S871   1.803       .  S
C868        C869   1.407       .  A
C869        C870   1.405       .  A
C869        H876   1.083       .  S
C870        S872   1.802       .  S
S871        H874   1.408       .  S
S872        H873   1.388       .  S
C877        C878   1.406   1_455  A
C877        C882   1.414       .  A
C878        C879   1.395       .  A
C878        H887   1.081       .  S
C879        C880   1.406   1_655  A
C879        S883   1.800       .  S
C880        C881   1.395       .  A
C881        C882   1.385       .  A
C881        H888   1.081       .  S
C882        S884   1.804       .  S
S883        H886   1.403       .  S
S884        H885   1.401       .  S
C889        C890   1.395       .  A
C889        C894   1.414   1_565  A
C890        C891   1.395       .  A
C890        H899   1.076       .  S
C891        C892   1.415       .  A
C891        S895   1.801       .  S
C892        C893   1.402   1_565  A
C893        C894   1.403       .  A
C893        H900   1.083       .  S
C894        S896   1.804       .  S
S895        H898   1.396       .  S
S896        H897   1.407       .  S
C901        C902   1.398       .  A
C901        C906   1.405       .  A
C902        C903   1.384       .  A
C902        H911   1.085       .  S
C903        C904   1.413       .  A
C903        S907   1.799       .  S
C904        C905   1.410       .  A
C905        C906   1.396       .  A
C905        H912   1.082       .  S
C906        S908   1.796       .  S
S907        H910   1.393       .  S
S908        H909   1.405       .  S
C913        C914   1.395       .  A
C913        C918   1.409       .  A
C914        C915   1.389       .  A
C914        H923   1.085       .  S
C915        C916   1.423       .  A
C915        S919   1.805       .  S
C916        C917   1.404       .  A
C917        C918   1.396       .  A
C917        H924   1.078       .  S
C918        S920   1.805       .  S
S919        H922   1.385       .  S
S920        H921   1.398       .  S
C925        C926   1.400       .  A
C925        C930   1.413   1_565  A
C926        C927   1.396       .  A
C926        H935   1.084       .  S
C927        C928   1.421       .  A
C927        S931   1.806       .  S
C928        C929   1.400   1_565  A
C929        C930   1.395       .  A
C929        H936   1.079       .  S
C930        S932   1.800       .  S
S931        H934   1.393       .  S
S932        H933   1.408       .  S
C937        C938   1.401       .  A
C937        C942   1.419       .  A
C938        C939   1.401       .  A
C938        H947   1.079       .  S
C939        C940   1.419       .  A
C939        S943   1.797       .  S
C940        C941   1.396       .  A
C941        C942   1.400       .  A
C941        H948   1.084       .  S
C942        S944   1.789       .  S
S943        H946   1.406       .  S
S944        H945   1.406       .  S
C949        C950   1.403       .  A
C949        C954   1.417       .  A
C950        C951   1.407   1_565  A
C950        H959   1.083   1_565  S
C951        C952   1.419   1_545  A
C951        S955   1.808       .  S
C952        C953   1.410       .  A
C953        C954   1.415       .  A
C953        H960   1.083       .  S
C954        S956   1.801       .  S
S955        H958   1.407       .  S
S956        H957   1.405       .  S
C961        C962   1.405       .  A
C961        C966   1.415   1_565  A
C962        C963   1.397       .  A
C962        H971   1.082       .  S
C963        C964   1.418       .  A
C963        S967   1.800       .  S
C964        C965   1.411   1_565  A
C965        C966   1.402       .  A
C965        H972   1.083       .  S
C966        S968   1.801       .  S
S967        H970   1.407       .  S
S968        H969   1.404       .  S
C973        C974   1.404       .  A
C973        C978   1.407       .  A
C974        C975   1.395       .  A
C974        H983   1.083       .  S
C975        C976   1.410       .  A
C975        S979   1.805       .  S
C976        C977   1.408       .  A
C977        C978   1.397       .  A
C977        H984   1.080       .  S
C978        S980   1.801       .  S
S979        H982   1.407       .  S
S980        H981   1.407       .  S
C985        C986   1.406       .  A
C985        C990   1.416       .  A
C986        C987   1.393       .  A
C986        H995   1.084       .  S
C987        C988   1.418       .  A
C987        S991   1.807       .  S
C988        C989   1.403       .  A
C989        C990   1.397       .  A
C989        H996   1.077       .  S
C990        S992   1.800       .  S
S991        H994   1.391       .  S
S992        H993   1.406       .  S
C997        C998   1.404   1_455  A
C997       C1002   1.408       .  A
C998        C999   1.407       .  A
C998       H1007   1.081       .  S
C999       C1000   1.418       .  A
C999       S1003   1.801       .  S
C1000      C1001   1.405   1_655  A
C1001      C1002   1.398       .  A
C1001      H1008   1.080       .  S
C1002      S1004   1.797       .  S
S1003      H1006   1.400       .  S
S1004      H1005   1.405       .  S
C1009      C1010   1.404       .  A
C1009      C1014   1.425   1_655  A
C1010      C1011   1.402       .  A
C1010      H1019   1.083       .  S
C1011      C1012   1.415   1_655  A
C1011      S1015   1.793       .  S
C1012      C1013   1.402       .  A
C1013      C1014   1.403       .  A
C1013      H1020   1.080       .  S
C1014      S1016   1.801       .  S
S1015      H1018   1.405       .  S
S1016      H1017   1.408       .  S
C1021      C1022   1.404       .  A
C1021      C1026   1.420       .  A
C1022      C1023   1.399       .  A
C1022      H1031   1.084       .  S
C1023      C1024   1.418       .  A
C1023      S1027   1.805       .  S
C1024      C1025   1.406       .  A
C1025      C1026   1.408       .  A
C1025      H1032   1.084       .  S
C1026      S1028   1.802       .  S
S1027      H1030   1.394       .  S
S1028      H1029   1.399       .  S
C1033      C1034   1.396       .  A
C1033      C1038   1.423   1_554  A
C1034      C1035   1.400       .  A
C1034      H1043   1.084       .  S
C1035      C1036   1.421       .  A
C1035      S1039   1.797       .  S
C1036      C1037   1.401   1_554  A
C1037      C1038   1.404       .  A
C1037      H1044   1.083       .  S
C1038      S1040   1.797       .  S
S1039      H1042   1.404       .  S
S1040      H1041   1.407       .  S
C1045      C1046   1.408   1_554  A
C1045      C1050   1.406       .  A
C1046      C1047   1.408       .  A
C1046      H1055   1.084       .  S
C1047      C1048   1.416   1_556  A
C1047      S1051   1.796       .  S
C1048      C1049   1.407       .  A
C1049      C1050   1.378       .  A
C1049      H1056   1.081       .  S
C1050      S1052   1.803       .  S
S1051      H1054   1.407       .  S
S1052      H1053   1.395       .  S
C1057      C1058   1.404   1_565  A
C1057      C1062   1.421       .  A
C1058      C1059   1.405       .  A
C1058      H1067   1.083       .  S
C1059      C1060   1.416       .  A
C1059      S1063   1.799       .  S
C1060      C1061   1.397   1_545  A
C1061      C1062   1.388       .  A
C1061      H1068   1.081       .  S
C1062      S1064   1.805       .  S
S1063      H1066   1.404       .  S
S1064      H1065   1.409       .  S
C1069      C1070   1.406       .  A
C1069      C1074   1.423   1_565  A
C1070      C1071   1.408       .  A
C1070      H1079   1.083       .  S
C1071      C1072   1.416       .  A
C1071      S1075   1.797       .  S
C1072      C1073   1.401       .  A
C1073      C1074   1.407   1_565  A
C1073      H1080   1.084   1_565  S
C1074      S1076   1.802       .  S
S1075      H1078   1.405       .  S
S1076      H1077   1.399       .  S
C1081      C1082   1.398   1_554  A
C1081      C1086   1.407       .  A
C1082      C1083   1.382       .  A
C1082      H1091   1.085       .  S
C1083      C1084   1.413   1_556  A
C1083      S1087   1.806       .  S
C1084      C1085   1.407       .  A
C1085      C1086   1.397       .  A
C1085      H1092   1.082       .  S
C1086      S1088   1.802       .  S
S1087      H1090   1.399       .  S
S1088      H1089   1.406       .  S
C1093      C1094   1.401   1_556  A
C1093      C1098   1.414       .  A
C1094      C1095   1.409       .  A
C1094      H1103   1.079       .  S
C1095      C1096   1.415       .  A
C1095      S1099   1.799       .  S
C1096      C1097   1.393   1_554  A
C1097      C1098   1.384       .  A
C1097      H1104   1.080       .  S
C1098      S1100   1.784       .  S
S1099      H1102   1.407       .  S
S1100      H1101   1.389       .  S
C1105      C1106   1.397       .  A
C1105      C1110   1.418       .  A
C1106      C1107   1.392       .  A
C1106      H1115   1.085       .  S
C1107      C1108   1.417       .  A
C1107      S1111   1.796       .  S
C1108      C1109   1.404       .  A
C1109      C1110   1.405       .  A
C1109      H1116   1.083   1_565  S
C1110      S1112   1.794   1_565  S
S1111      H1114   1.404       .  S
S1112      H1113   1.407       .  S
C1117      C1118   1.403       .  A
C1117      C1122   1.406       .  A
C1118      C1119   1.398       .  A
C1118      H1127   1.080       .  S
C1119      C1120   1.412       .  A
C1119      S1123   1.807       .  S
C1120      C1121   1.410       .  A
C1121      C1122   1.401       .  A
C1121      H1128   1.077   1_565  S
C1122      S1124   1.800   1_565  S
S1123      H1126   1.407       .  S
S1124      H1125   1.406       .  S
C1129      C1130   1.400       .  A
C1129      C1134   1.414       .  A
C1130      C1131   1.391       .  A
C1130      H1139   1.084       .  S
C1131      C1132   1.413       .  A
C1131      S1135   1.804       .  S
C1132      C1133   1.401       .  A
C1133      C1134   1.398       .  A
C1133      H1140   1.082       .  S
C1134      S1136   1.802       .  S
S1135      H1138   1.402       .  S
S1136      H1137   1.407       .  S
C1141      C1142   1.398       .  A
C1141      C1146   1.413       .  A
C1142      C1143   1.394       .  A
C1142      H1151   1.081       .  S
C1143      C1144   1.419       .  A
C1143      S1147   1.803       .  S
C1144      C1145   1.406       .  A
C1145      C1146   1.409       .  A
C1145      H1152   1.082       .  S
C1146      S1148   1.796       .  S
S1147      H1150   1.394       .  S
S1148      H1149   1.404       .  S
C1153      C1154   1.401   1_565  A
C1153      C1158   1.405       .  A
C1154      C1155   1.391       .  A
C1154      H1163   1.081       .  S
C1155      C1156   1.411   1_545  A
C1155      S1159   1.807       .  S
C1156      C1157   1.410       .  A
C1157      C1158   1.403       .  A
C1157      H1164   1.078       .  S
C1158      S1160   1.796       .  S
S1159      H1162   1.407       .  S
S1160      H1161   1.405       .  S
C1165      C1166   1.413       .  A
C1165      C1170   1.412       .  A
C1166      C1167   1.410       .  A
C1166      H1175   1.083       .  S
C1167      C1168   1.413       .  A
C1167      S1171   1.795       .  S
C1168      C1169   1.412       .  A
C1169      C1170   1.397       .  A
C1169      H1176   1.083   1_565  S
C1170      S1172   1.799   1_565  S
S1171      H1174   1.407       .  S
S1172      H1173   1.391       .  S
C1177      C1178   1.395       .  A
C1177      C1182   1.406   1_554  A
C1178      C1179   1.395       .  A
C1178      H1187   1.073       .  S
C1179      C1180   1.415       .  A
C1179      S1183   1.798       .  S
C1180      C1181   1.407   1_554  A
C1181      C1182   1.394       .  A
C1181      H1188   1.084       .  S
C1182      S1184   1.793       .  S
S1183      H1186   1.407       .  S
S1184      H1185   1.404       .  S
C1189      C1190   1.403       .  A
C1189      C1194   1.412   1_556  A
C1190      C1191   1.409       .  A
C1190      H1199   1.084       .  S
C1191      C1192   1.425   1_556  A
C1191      S1195   1.801       .  S
C1192      C1193   1.407       .  A
C1193      C1194   1.398       .  A
C1193      H1200   1.083       .  S
C1194      S1196   1.807       .  S
S1195      H1198   1.397       .  S
S1196      H1197   1.401       .  S
C1201      C1202   1.401       .  A
C1201      C1206   1.408       .  A
C1202      C1203   1.396       .  A
C1202      H1211   1.084       .  S
C1203      C1204   1.408       .  A
C1203      S1207   1.794       .  S
C1204      C1205   1.404       .  A
C1205      C1206   1.388       .  A
C1205      H1212   1.083       .  S
C1206      S1208   1.806       .  S
S1207      H1210   1.407       .  S
S1208      H1209   1.396       .  S
C1213      C1214   1.400       .  A
C1213      C1218   1.415       .  A
C1214      C1215   1.394       .  A
C1214      H1223   1.083       .  S
C1215      C1216   1.410       .  A
C1215      S1219   1.793       .  S
C1216      C1217   1.391       .  A
C1217      C1218   1.384       .  A
C1217      H1224   1.077       .  S
C1218      S1220   1.802       .  S
S1219      H1222   1.404       .  S
S1220      H1221   1.395       .  S
C1225      C1226   1.412   1_565  A
C1225      C1230   1.407       .  A
C1226      C1227   1.401       .  A
C1226      H1235   1.083       .  S
C1227      C1228   1.408   1_545  A
C1227      S1231   1.801       .  S
C1228      C1229   1.404       .  A
C1229      C1230   1.380       .  A
C1229      H1236   1.079       .  S
C1230      S1232   1.804       .  S
S1231      H1234   1.402       .  S
S1232      H1233   1.404       .  S
C1237      C1238   1.410       .  A
C1237      C1242   1.415   1_565  A
C1238      C1239   1.411       .  A
C1238      H1247   1.082       .  S
C1239      C1240   1.416       .  A
C1239      S1243   1.803       .  S
C1240      C1241   1.396       .  A
C1241      C1242   1.389   1_565  A
C1241      H1248   1.082   1_565  S
C1242      S1244   1.800       .  S
S1243      H1246   1.401       .  S
S1244      H1245   1.398       .  S
C1249      C1250   1.412       .  A
C1249      C1254   1.415       .  A
C1250      C1251   1.398       .  A
C1250      H1259   1.083       .  S
C1251      C1252   1.410       .  A
C1251      S1255   1.790       .  S
C1252      C1253   1.413       .  A
C1253      C1254   1.408       .  A
C1253      H1260   1.082       .  S
C1254      S1256   1.796       .  S
S1255      H1258   1.407       .  S
S1256      H1257   1.406       .  S
C1261      C1262   1.413       .  A
C1261      C1266   1.413       .  A
C1262      C1263   1.414       .  A
C1262      H1271   1.080       .  S
C1263      C1264   1.411       .  A
C1263      S1267   1.803       .  S
C1264      C1265   1.404       .  A
C1265      C1266   1.395       .  A
C1265      H1272   1.085       .  S
C1266      S1268   1.803       .  S
S1267      H1270   1.407       .  S
S1268      H1269   1.402       .  S
C1273      C1274   1.398   1_556  A
C1273      C1278   1.417       .  A
C1274      C1275   1.398       .  A
C1274      H1283   1.082       .  S
C1275      C1276   1.424       .  A
C1275      S1279   1.804       .  S
C1276      C1277   1.404   1_554  A
C1277      C1278   1.412       .  A
C1277      H1284   1.083       .  S
C1278      S1280   1.782       .  S
S1279      H1282   1.401       .  S
S1280      H1281   1.404       .  S
C1285      C1286   1.410   1_556  A
C1285      C1290   1.416       .  A
C1286      C1287   1.401       .  A
C1286      H1295   1.083       .  S
C1287      C1288   1.409       .  A
C1287      S1291   1.795       .  S
C1288      C1289   1.404   1_554  A
C1289      C1290   1.395       .  A
C1289      H1296   1.083       .  S
C1290      S1292   1.804       .  S
S1291      H1294   1.407       .  S
S1292      H1293   1.408       .  S
C1297      C1298   1.400       .  A
C1297      C1302   1.432       .  A
C1298      C1299   1.397       .  A
C1298      H1307   1.084       .  S
C1299      C1300   1.415       .  A
C1299      S1303   1.802       .  S
C1300      C1301   1.389       .  A
C1301      C1302   1.389       .  A
C1301      H1308   1.084       .  S
C1302      S1304   1.807       .  S
S1303      H1306   1.404       .  S
S1304      H1305   1.409       .  S
C1309      C1310   1.400       .  A
C1309      C1314   1.404       .  A
C1310      C1311   1.390       .  A
C1310      H1319   1.085       .  S
C1311      C1312   1.415       .  A
C1311      S1315   1.800       .  S
C1312      C1313   1.408       .  A
C1313      C1314   1.399       .  A
C1313      H1320   1.082       .  S
C1314      S1316   1.790       .  S
S1315      H1318   1.407       .  S
S1316      H1317   1.405       .  S
C1321      C1322   1.400       .  A
C1321      C1326   1.413   1_554  A
C1322      C1323   1.399       .  A
C1322      H1331   1.081       .  S
C1323      C1324   1.413       .  A
C1323      S1327   1.793       .  S
C1324      C1325   1.403   1_554  A
C1325      C1326   1.392       .  A
C1325      H1332   1.084       .  S
C1326      S1328   1.802       .  S
S1327      H1330   1.406       .  S
S1328      H1329   1.408       .  S
C1333      C1334   1.402       .  A
C1333      C1338   1.417   1_554  A
C1334      C1335   1.400       .  A
C1334      H1343   1.083       .  S
C1335      C1336   1.413       .  A
C1335      S1339   1.801       .  S
C1336      C1337   1.403   1_554  A
C1337      C1338   1.411       .  A
C1337      H1344   1.082       .  S
C1338      S1340   1.800       .  S
S1339      H1342   1.407       .  S
S1340      H1341   1.406       .  S
C1345      C1346   1.407       .  A
C1345      C1350   1.419   1_455  A
C1346      C1347   1.408       .  A
C1346      H1355   1.081       .  S
C1347      C1348   1.415       .  A
C1347      S1351   1.796       .  S
C1348      C1349   1.403   1_455  A
C1349      C1350   1.392       .  A
C1349      H1356   1.084       .  S
C1350      S1352   1.806       .  S
S1351      H1354   1.407       .  S
S1352      H1353   1.394       .  S
C1357      C1358   1.403   1_455  A
C1357      C1362   1.420       .  A
C1358      C1359   1.411       .  A
C1358      H1367   1.083       .  S
C1359      C1360   1.423   1_655  A
C1359      S1363   1.797       .  S
C1360      C1361   1.400       .  A
C1361      C1362   1.402       .  A
C1361      H1368   1.082       .  S
C1362      S1364   1.807       .  S
S1363      H1366   1.407       .  S
S1364      H1365   1.407       .  S
C1369      C1370   1.416   1_556  A
C1369      C1374   1.412       .  A
C1370      C1371   1.401       .  A
C1370      H1379   1.083       .  S
C1371      C1372   1.408   1_554  A
C1371      S1375   1.796       .  S
C1372      C1373   1.414       .  A
C1373      C1374   1.407       .  A
C1373      H1380   1.082       .  S
C1374      S1376   1.800       .  S
S1375      H1378   1.407       .  S
S1376      H1377   1.408       .  S
C1381      C1382   1.405       .  A
C1381      C1386   1.421   1_455  A
C1382      C1383   1.391       .  A
C1382      H1391   1.084       .  S
C1383      C1384   1.410       .  A
C1383      S1387   1.805       .  S
C1384      C1385   1.403   1_455  A
C1385      C1386   1.404       .  A
C1385      H1392   1.084       .  S
C1386      S1388   1.803       .  S
S1387      H1390   1.402       .  S
S1388      H1389   1.397       .  S
C1393      C1394   1.398       .  A
C1393      C1398   1.413   1_554  A
C1394      C1395   1.393       .  A
C1394      H1403   1.078       .  S
C1395      C1396   1.413       .  A
C1395      S1399   1.800       .  S
C1396      C1397   1.413   1_554  A
C1397      C1398   1.412       .  A
C1397      H1404   1.083       .  S
C1398      S1400   1.803       .  S
S1399      H1402   1.392       .  S
S1400      H1401   1.406       .  S
C1405      C1406   1.401       .  A
C1405      C1410   1.407   1_455  A
C1406      C1407   1.393       .  A
C1406      H1415   1.081       .  S
C1407      C1408   1.411       .  A
C1407      S1411   1.793       .  S
C1408      C1409   1.408   1_455  A
C1409      C1410   1.394       .  A
C1409      H1416   1.084       .  S
C1410      S1412   1.796       .  S
S1411      H1414   1.408       .  S
S1412      H1413   1.402       .  S
C1417      C1418   1.408       .  A
C1417      C1422   1.413       .  A
C1418      C1419   1.403       .  A
C1418      H1427   1.084       .  S
C1419      C1420   1.417       .  A
C1419      S1423   1.797       .  S
C1420      C1421   1.411       .  A
C1421      C1422   1.402       .  A
C1421      H1428   1.084       .  S
C1422      S1424   1.805       .  S
S1423      H1426   1.400       .  S
S1424      H1425   1.402       .  S
C1429      C1430   1.395       .  A
C1429      C1434   1.402       .  A
C1430      C1431   1.391       .  A
C1430      H1439   1.084       .  S
C1431      C1432   1.414       .  A
C1431      S1435   1.802       .  S
C1432      C1433   1.403       .  A
C1433      C1434   1.382       .  A
C1433      H1440   1.083       .  S
C1434      S1436   1.805       .  S
S1435      H1438   1.407       .  S
S1436      H1437   1.401       .  S
C1441      C1442   1.404       .  A
C1441      C1446   1.420   1_655  A
C1442      C1443   1.401       .  A
C1442      H1451   1.082       .  S
C1443      C1444   1.415       .  A
C1443      S1447   1.808       .  S
C1444      C1445   1.402   1_655  A
C1445      C1446   1.399       .  A
C1445      H1452   1.080       .  S
C1446      S1448   1.802       .  S
S1447      H1450   1.407       .  S
S1448      H1449   1.408       .  S
C1453      C1454   1.405       .  A
C1453      C1458   1.411   1_455  A
C1454      C1455   1.394       .  A
C1454      H1463   1.085       .  S
C1455      C1456   1.410       .  A
C1455      S1459   1.793       .  S
C1456      C1457   1.407   1_455  A
C1457      C1458   1.403       .  A
C1457      H1464   1.082       .  S
C1458      S1460   1.797       .  S
S1459      H1462   1.404       .  S
S1460      H1461   1.406       .  S
C1465      C1466   1.399       .  A
C1465      C1470   1.414       .  A
C1466      C1467   1.393       .  A
C1466      H1475   1.083       .  S
C1467      C1468   1.414       .  A
C1467      S1471   1.795       .  S
C1468      C1469   1.412       .  A
C1469      C1470   1.415       .  A
C1469      H1476   1.083       .  S
C1470      S1472   1.800       .  S
S1471      H1474   1.400       .  S
S1472      H1473   1.404       .  S
C1477      C1478   1.410       .  A
C1477      C1482   1.412       .  A
C1478      C1479   1.407       .  A
C1478      H1487   1.083       .  S
C1479      C1480   1.411       .  A
C1479      S1483   1.794       .  S
C1480      C1481   1.402       .  A
C1481      C1482   1.388       .  A
C1481      H1488   1.085       .  S
C1482      S1484   1.801       .  S
S1483      H1486   1.407       .  S
S1484      H1485   1.402       .  S
C1489      C1490   1.404   1_556  A
C1489      C1494   1.408       .  A
C1490      C1491   1.403       .  A
C1490      H1499   1.079       .  S
C1491      C1492   1.412   1_554  A
C1491      S1495   1.794       .  S
C1492      C1493   1.410       .  A
C1493      C1494   1.410       .  A
C1493      H1500   1.079       .  S
C1494      S1496   1.804       .  S
S1495      H1498   1.405       .  S
S1496      H1497   1.407       .  S
C1501      C1502   1.402   1_554  A
C1501      C1506   1.419       .  A
C1502      C1503   1.387       .  A
C1502      H1511   1.083       .  S
C1503      C1504   1.417       .  A
C1503      S1507   1.803       .  S
C1504      C1505   1.409   1_556  A
C1505      C1506   1.408       .  A
C1505      H1512   1.083       .  S
C1506      S1508   1.805       .  S
S1507      H1510   1.408       .  S
S1508      H1509   1.394       .  S
C1513      C1514   1.405       .  A
C1513      C1518   1.411       .  A
C1514      C1515   1.417       .  A
C1514      H1523   1.077       .  S
C1515      C1516   1.426       .  A
C1515      S1519   1.803       .  S
C1516      C1517   1.403       .  A
C1517      C1518   1.396       .  A
C1517      H1524   1.083       .  S
C1518      S1520   1.791       .  S
S1519      H1522   1.392       .  S
S1520      H1521   1.406       .  S
C1525      C1526   1.396   1_455  A
C1525      C1530   1.414       .  A
C1526      C1527   1.393       .  A
C1526      H1535   1.078       .  S
C1527      C1528   1.420   1_655  A
C1527      S1531   1.799       .  S
C1528      C1529   1.412       .  A
C1529      C1530   1.415       .  A
C1529      H1536   1.083       .  S
C1530      S1532   1.793       .  S
S1531      H1534   1.398       .  S
S1532      H1533   1.406       .  S
C1537      C1538   1.402       .  A
C1537      C1542   1.424   1_455  A
C1538      C1539   1.401       .  A
C1538      H1547   1.079       .  S
C1539      C1540   1.412       .  A
C1539      S1543   1.806       .  S
C1540      C1541   1.394   1_455  A
C1541      C1542   1.394       .  A
C1541      H1548   1.081       .  S
C1542      S1544   1.806       .  S
S1543      H1546   1.407       .  S
S1544      H1545   1.408       .  S
C1549      C1550   1.411       .  A
C1549      C1554   1.410       .  A
C1550      C1551   1.394       .  A
C1550      H1559   1.083       .  S
C1551      C1552   1.410       .  A
C1551      S1555   1.807       .  S
C1552      C1553   1.402       .  A
C1553      C1554   1.385       .  A
C1553      H1560   1.082       .  S
C1554      S1556   1.798       .  S
S1555      H1558   1.400       .  S
S1556      H1557   1.406       .  S
C1561      C1562   1.409   1_554  A
C1561      C1566   1.408       .  A
C1562      C1563   1.406       .  A
C1562      H1571   1.083       .  S
C1563      C1564   1.411   1_556  A
C1563      S1567   1.799       .  S
C1564      C1565   1.403       .  A
C1565      C1566   1.386       .  A
C1565      H1572   1.084       .  S
C1566      S1568   1.809       .  S
S1567      H1570   1.406       .  S
S1568      H1569   1.407       .  S
C1573      C1574   1.395       .  A
C1573      C1578   1.417   1_554  A
C1574      C1575   1.387       .  A
C1574      H1583   1.077       .  S
C1575      C1576   1.414       .  A
C1575      S1579   1.797       .  S
C1576      C1577   1.405   1_554  A
C1577      C1578   1.399       .  A
C1577      H1584   1.081       .  S
C1578      S1580   1.799       .  S
S1579      H1582   1.401       .  S
S1580      H1581   1.407       .  S
C1585      C1586   1.406       .  A
C1585      C1590   1.415       .  A
C1586      C1587   1.417       .  A
C1586      H1595   1.083       .  S
C1587      C1588   1.420       .  A
C1587      S1591   1.800       .  S
C1588      C1589   1.403       .  A
C1589      C1590   1.396       .  A
C1589      H1596   1.081       .  S
C1590      S1592   1.799       .  S
S1591      H1594   1.407       .  S
S1592      H1593   1.393       .  S
C1597      C1598   1.412       .  A
C1597      C1602   1.413       .  A
C1598      C1599   1.393       .  A
C1598      H1607   1.083       .  S
C1599      C1600   1.410       .  A
C1599      S1603   1.808       .  S
C1600      C1601   1.404       .  A
C1601      C1602   1.388       .  A
C1601      H1608   1.081       .  S
C1602      S1604   1.804       .  S
S1603      H1606   1.399       .  S
S1604      H1605   1.401       .  S
C1609      C1610   1.399       .  A
C1609      C1614   1.422       .  A
C1610      C1611   1.394       .  A
C1610      H1619   1.082       .  S
C1611      C1612   1.420       .  A
C1611      S1615   1.803       .  S
C1612      C1613   1.401       .  A
C1613      C1614   1.402       .  A
C1613      H1620   1.083       .  S
C1614      S1616   1.795       .  S
S1615      H1618   1.395       .  S
S1616      H1617   1.408       .  S
C1621      C1622   1.399       .  A
C1621      C1626   1.410       .  A
C1622      C1623   1.392       .  A
C1622      H1631   1.085       .  S
C1623      C1624   1.414       .  A
C1623      S1627   1.802       .  S
C1624      C1625   1.405       .  A
C1625      C1626   1.396       .  A
C1625      H1632   1.083       .  S
C1626      S1628   1.802       .  S
S1627      H1630   1.399       .  S
S1628      H1629   1.405       .  S
C1633      C1634   1.406       .  A
C1633      C1638   1.410       .  A
C1634      C1635   1.384       .  A
C1634      H1643   1.084       .  S
C1635      C1636   1.407       .  A
C1635      S1639   1.794       .  S
C1636      C1637   1.405       .  A
C1637      C1638   1.398       .  A
C1637      H1644   1.073       .  S
C1638      S1640   1.798       .  S
S1639      H1642   1.408       .  S
S1640      H1641   1.407       .  S
C1645      C1646   1.407       .  A
C1645      C1650   1.418       .  A
C1646      C1647   1.413       .  A
C1646      H1655   1.084       .  S
C1647      C1648   1.419       .  A
C1647      S1651   1.802       .  S
C1648      C1649   1.388       .  A
C1649      C1650   1.382       .  A
C1649      H1656   1.080       .  S
C1650      S1652   1.793       .  S
S1651      H1654   1.397       .  S
S1652      H1653   1.408       .  S
C1657      C1658   1.405       .  A
C1657      C1662   1.417       .  A
C1658      C1659   1.406       .  A
C1658      H1667   1.084       .  S
C1659      C1660   1.415       .  A
C1659      S1663   1.797       .  S
C1660      C1661   1.400       .  A
C1661      C1662   1.399       .  A
C1661      H1668   1.084       .  S
C1662      S1664   1.788       .  S
S1663      H1666   1.402       .  S
S1664      H1665   1.403       .  S
C1669      C1670   1.394       .  A
C1669      C1674   1.406       .  A
C1670      C1671   1.390       .  A
C1670      H1679   1.084       .  S
C1671      C1672   1.414       .  A
C1671      S1675   1.805       .  S
C1672      C1673   1.403       .  A
C1673      C1674   1.389       .  A
C1673      H1680   1.081       .  S
C1674      S1676   1.792       .  S
S1675      H1678   1.407       .  S
S1676      H1677   1.406       .  S
C1681      C1682   1.401       .  A
C1681      C1686   1.424       .  A
C1682      C1683   1.402       .  A
C1682      H1691   1.084       .  S
C1683      C1684   1.418       .  A
C1683      S1687   1.802       .  S
C1684      C1685   1.401       .  A
C1685      C1686   1.407       .  A
C1685      H1692   1.083       .  S
C1686      S1688   1.799       .  S
S1687      H1690   1.405       .  S
S1688      H1689   1.407       .  S
C1693      C1694   1.408       .  A
C1693      C1698   1.418       .  A
C1694      C1695   1.395       .  A
C1694      H1703   1.083       .  S
C1695      C1696   1.415       .  A
C1695      S1699   1.801       .  S
C1696      C1697   1.410       .  A
C1697      C1698   1.404       .  A
C1697      H1704   1.083       .  S
C1698      S1700   1.803       .  S
S1699      H1702   1.408       .  S
S1700      H1701   1.388       .  S
C1705      C1706   1.408       .  A
C1705      C1710   1.414       .  A
C1706      C1707   1.417       .  A
C1706      H1715   1.083       .  S
C1707      C1708   1.412       .  A
C1707      S1711   1.803       .  S
C1708      C1709   1.393       .  A
C1709      C1710   1.383       .  A
C1709      H1716   1.082       .  S
C1710      S1712   1.789       .  S
S1711      H1714   1.407       .  S
S1712      H1713   1.405       .  S
C1717      C1718   1.412       .  A
C1717      C1722   1.411       .  A
C1718      C1719   1.392       .  A
C1718      H1727   1.084       .  S
C1719      C1720   1.409       .  A
C1719      S1723   1.805       .  S
C1720      C1721   1.409       .  A
C1721      C1722   1.392       .  A
C1721      H1728   1.082       .  S
C1722      S1724   1.812       .  S
S1723      H1726   1.401       .  S
S1724      H1725   1.407       .  S
C1729      C1730   1.400       .  A
C1729      C1734   1.419       .  A
C1730      C1731   1.394       .  A
C1730      H1739   1.081       .  S
C1731      C1732   1.417       .  A
C1731      S1735   1.802       .  S
C1732      C1733   1.396       .  A
C1733      C1734   1.383       .  A
C1733      H1740   1.084       .  S
C1734      S1736   1.801       .  S
S1735      H1738   1.408       .  S
S1736      H1737   1.382       .  S
C1741      C1742   1.398       .  A
C1741      C1746   1.418       .  A
C1742      C1743   1.398       .  A
C1742      H1751   1.084       .  S
C1743      C1744   1.423       .  A
C1743      S1747   1.805       .  S
C1744      C1745   1.408       .  A
C1745      C1746   1.412       .  A
C1745      H1752   1.083       .  S
C1746      S1748   1.799       .  S
S1747      H1750   1.399       .  S
S1748      H1749   1.406       .  S
C1753      C1754   1.397       .  A
C1753      C1758   1.411       .  A
C1754      C1755   1.402       .  A
C1754      H1763   1.083       .  S
C1755      C1756   1.420       .  A
C1755      S1759   1.801       .  S
C1756      C1757   1.406       .  A
C1757      C1758   1.396       .  A
C1757      H1764   1.083       .  S
C1758      S1760   1.801       .  S
S1759      H1762   1.407       .  S
S1760      H1761   1.407       .  S
C1765      C1766   1.405       .  A
C1765      C1770   1.409       .  A
C1766      C1767   1.409       .  A
C1766      H1775   1.083       .  S
C1767      C1768   1.411       .  A
C1767      S1771   1.803       .  S
C1768      C1769   1.399       .  A
C1769      C1770   1.382       .  A
C1769      H1776   1.082       .  S
C1770      S1772   1.802       .  S
S1771      H1774   1.407       .  S
S1772      H1773   1.397       .  S
C1777      C1778   1.396       .  A
C1777      C1782   1.410       .  A
C1778      C1779   1.396       .  A
C1778      H1787   1.085       .  S
C1779      C1780   1.417       .  A
C1779      S1783   1.795       .  S
C1780      C1781   1.404       .  A
C1781      C1782   1.398       .  A
C1781      H1788   1.074       .  S
C1782      S1784   1.802       .  S
S1783      H1786   1.405       .  S
S1784      H1785   1.405       .  S
C1789      C1790   1.401       .  A
C1789      C1794   1.411       .  A
C1790      C1791   1.402       .  A
C1790      H1799   1.084       .  S
C1791      C1792   1.413       .  A
C1791      S1795   1.793       .  S
C1792      C1793   1.397       .  A
C1793      C1794   1.384       .  A
C1793      H1800   1.084       .  S
C1794      S1796   1.793       .  S
S1795      H1798   1.406       .  S
S1796      H1797   1.393       .  S
C1801      C1802   1.397       .  A
C1801      C1806   1.415       .  A
C1802      C1803   1.389       .  A
C1802      H1811   1.083       .  S
C1803      C1804   1.416       .  A
C1803      S1807   1.806       .  S
C1804      C1805   1.408       .  A
C1805      C1806   1.409       .  A
C1805      H1812   1.083       .  S
C1806      S1808   1.805       .  S
S1807      H1810   1.403       .  S
S1808      H1809   1.400       .  S
C1813      C1814   1.412       .  A
C1813      C1818   1.412       .  A
C1814      C1815   1.392       .  A
C1814      H1823   1.083       .  S
C1815      C1816   1.404       .  A
C1815      S1819   1.796       .  S
C1816      C1817   1.403       .  A
C1817      C1818   1.392       .  A
C1817      H1824   1.083       .  S
C1818      S1820   1.799       .  S
S1819      H1822   1.407       .  S
S1820      H1821   1.408       .  S
C1825      C1826   1.407       .  A
C1825      C1830   1.411       .  A
C1826      C1827   1.398       .  A
C1826      H1835   1.083       .  S
C1827      C1828   1.414       .  A
C1827      S1831   1.801       .  S
C1828      C1829   1.410       .  A
C1829      C1830   1.400       .  A
C1829      H1836   1.082       .  S
C1830      S1832   1.803       .  S
S1831      H1834   1.408       .  S
S1832      H1833   1.407       .  S
C1837      C1838   1.398       .  A
C1837      C1842   1.415       .  A
C1838      C1839   1.400       .  A
C1838      H1847   1.084       .  S
C1839      C1840   1.420       .  A
C1839      S1843   1.794       .  S
C1840      C1841   1.409       .  A
C1841      C1842   1.406       .  A
C1841      H1848   1.080       .  S
C1842      S1844   1.799       .  S
S1843      H1846   1.401       .  S
S1844      H1845   1.406       .  S
C1849      C1850   1.396       .  A
C1849      C1854   1.410       .  A
C1850      C1851   1.390       .  A
C1850      H1859   1.083       .  S
C1851      C1852   1.417       .  A
C1851      S1855   1.801       .  S
C1852      C1853   1.404       .  A
C1853      C1854   1.400       .  A
C1853      H1860   1.084       .  S
C1854      S1856   1.789       .  S
S1855      H1858   1.392       .  S
S1856      H1857   1.406       .  S
C1861      C1862   1.405       .  A
C1861      C1866   1.414       .  A
C1862      C1863   1.377       .  A
C1862      H1871   1.076       .  S
C1863      C1864   1.398       .  A
C1863      S1867   1.802       .  S
C1864      C1865   1.403       .  A
C1865      C1866   1.403       .  A
C1865      H1872   1.081       .  S
C1866      S1868   1.803       .  S
S1867      H1870   1.407       .  S
S1868      H1869   1.407       .  S
C1873      C1874   1.395       .  A
C1873      C1878   1.409       .  A
C1874      C1875   1.407       .  A
C1874      H1883   1.064       .  S
C1875      C1876   1.418       .  A
C1875      S1879   1.799       .  S
C1876      C1877   1.398       .  A
C1877      C1878   1.393       .  A
C1877      H1884   1.080       .  S
C1878      S1880   1.789       .  S
S1879      H1882   1.406       .  S
S1880      H1881   1.407       .  S
C1885      C1886   1.401       .  A
C1885      C1890   1.425       .  A
C1886      C1887   1.417       .  A
C1886      H1895   1.084       .  S
C1887      C1888   1.434       .  A
C1887      S1891   1.800       .  S
C1888      C1889   1.395       .  A
C1889      C1890   1.398       .  A
C1889      H1896   1.078       .  S
C1890      S1892   1.804       .  S
S1891      H1894   1.389       .  S
S1892      H1893   1.408       .  S
