geometry optimzed in LAMMPS
_audit_creation_date              2020-11-30 
_audit_creation_method            'lammps2cif' 
_symmetry_space_group_name_H-M    'P1' 
_symmetry_Int_Tables_number       1 
_symmetry_cell_setting            triclinic 
loop_ 
_symmetry_equiv_pos_as_xyz 
  x,y,z 
_cell_length_a                    28.199887522340795 
_cell_length_b                    29.28546079121112 
_cell_length_c                    27.685435226944946 
_cell_angle_alpha                 90.21747645255549 
_cell_angle_beta                  89.71067313182193 
_cell_angle_gamma                 89.93447502438866 
loop_ 
_atom_site_label 
_atom_site_type_symbol 
_atom_site_fract_x 
_atom_site_fract_y 
_atom_site_fract_z 
_atom_site_charge 
C1          C  0.40093094  0.40009974  0.38889100     0.42710
N2          N  0.41833363  0.45215935  0.44014296     0.01600
C3          C  0.12261193  0.08363081  0.44487537    -0.06270
H4          H  0.15275100  0.41364206  0.46334057     0.07090
C5          C  0.05718094  0.42066818  0.12426315    -0.06630
Co6        Co  0.00571361  0.50319604  0.41200759     0.74180
N7          N  0.08946747  0.45350628  0.45111996    -0.25800
Co8        Co  0.08660340  0.50313995  0.00622182     0.74070
C9          C  0.10398114  0.40319164  0.11149541     0.42810
N10         N  0.44255400  0.44864418  0.08287235     0.01220
N11         N  0.08383444  0.45355094  0.05978139     0.01320
N12         N  0.07156850  0.08132290  0.38195349    -0.46650
H13         H  0.46665653  0.41630686  0.34221748     0.07080
N14         N  0.05798526  0.45320834  0.41587085     0.01610
N15         N  0.08035009  0.05292836  0.06068525     0.01350
C16         C  0.09281738  0.10840711  0.11030754     0.42950
N17         N  0.41208236  0.44912830  0.04689958    -0.25260
C18         C  0.44511003  0.08771059  0.38099787    -0.06180
N19         N  0.38622352  0.42075410  0.42989112    -0.46370
N20         N  0.11015536  0.08665767  0.07064349    -0.46590
C21         C  0.40072132  0.10885333  0.39736482     0.42730
N22         N  0.05903663  0.05232681  0.41636793     0.01600
N23         N  0.40999866  0.04866942  0.04898702    -0.25280
N24         N  0.45299633  0.45374763  0.40810119    -0.25770
N25         N  0.44036792  0.04917817  0.08494333     0.01240
H26         H  0.34880834  0.08959976  0.03207034     0.07130
H27         H  0.02520392  0.09076987  0.15388125     0.07160
N28         N  0.08893287  0.05242722  0.45290236    -0.25820
N29         N  0.04802218  0.45213577  0.09062771    -0.25440
N30         N  0.41740573  0.05201383  0.44309490     0.01600
C31         C  0.10568461  0.39890032  0.39726055     0.43000
C32         C  0.38225827  0.41390098  0.05197834    -0.06690
N33         N  0.04478930  0.05100684  0.09176209    -0.25430
H34         H  0.03575397  0.41396913  0.15596329     0.07150
N35         N  0.06670398  0.42153119  0.38273276    -0.46660
H36         H  0.35296687  0.40642059  0.02821088     0.07130
C37         C  0.39313053  0.10482619  0.09966444     0.42830
C38         C  0.44512683  0.42200473  0.37411780    -0.06180
Co39       Co  0.41350320  0.00037502  0.49476228     0.73820
N40         N  0.43483005  0.41453886  0.11333699    -0.46370
C41         C  0.11093074  0.10254912  0.39804904     0.43100
N42         N  0.38536810  0.08435073  0.43556161    -0.46360
Co43       Co  0.49372151  0.00006864  0.08857464     0.73890
C44         C  0.04934175  0.08466259  0.12415332    -0.06690
C45         C  0.12150039  0.42058326  0.44209300    -0.06250
N46         N  0.45262303  0.05307798  0.41152590    -0.25780
N47         N  0.11862941  0.42532677  0.07148720    -0.46540
H48         H  0.15362714  0.08923021  0.46693672     0.07110
C49         C  0.37863166  0.08236191  0.05524096    -0.06670
Cl50       Cl  0.99998600  0.00161453  0.00036907    -0.49670
C51         C  0.39747814  0.39063206  0.09600966     0.42860
H52         H  0.46694609  0.09595683  0.35001230     0.07070
N53         N  0.43124647  0.08209593  0.11665204    -0.46380
C54         C  0.22222513  0.22651876  0.27993630    -0.02230
C55         C  0.22503027  0.27993442  0.27856324    -0.02230
C56         C  0.22219607  0.27903749  0.22249013    -0.02230
C57         C  0.21816783  0.22599584  0.22323018    -0.02230
C58         C  0.27741513  0.22325272  0.27640441    -0.02230
C59         C  0.27354410  0.22205060  0.21994289    -0.02230
C60         C  0.27761905  0.27548820  0.21853937    -0.02230
C61         C  0.28034742  0.27729526  0.27554134    -0.02230
C62         C  0.19772210  0.19342493  0.31493160    -0.05210
C63         C  0.19359551  0.14721486  0.30128773    -0.32640
C64         C  0.16398087  0.11745036  0.32700095     0.36610
C65         C  0.14136292  0.13267131  0.36938160    -0.05570
C66         C  0.15112526  0.17619453  0.38707835    -0.32540
C67         C  0.18013320  0.20614440  0.36107529     0.36520
H68         H  0.21042004  0.13510683  0.26846184     0.16890
O69         O  0.15801773  0.07348111  0.31095268    -0.60040
H70         H  0.13640060  0.18704115  0.42151503     0.16900
O71         O  0.19194146  0.24690185  0.38203827    -0.60130
H72         H  0.20516708  0.23952813  0.41423951     0.43900
H73         H  0.13229387  0.07518228  0.28673022     0.43850
C74         C  0.18960201  0.31336111  0.19716311    -0.05210
C75         C  0.20807146  0.35522408  0.18096830    -0.32640
C76         C  0.18133593  0.38410250  0.15136968     0.36610
C77         C  0.13376291  0.37352492  0.14149262    -0.05570
C78         C  0.11321278  0.33552622  0.16334488    -0.32540
C79         C  0.14025024  0.30617576  0.19196845     0.36520
H80         H  0.24403214  0.36489508  0.18955948     0.16890
O81         O  0.20159666  0.42314119  0.13350669    -0.60040
H82         H  0.07584128  0.32843399  0.15825965     0.16900
O83         O  0.11762981  0.27126045  0.21520603    -0.60130
H84         H  0.09127330  0.28527837  0.23397266     0.43900
H85         H  0.21964716  0.41323094  0.10445671     0.43850
C86         C  0.36346899  0.13573117  0.12864423    -0.05210
C87         C  0.31485230  0.12721004  0.13128884    -0.32640
C88         C  0.28577067  0.15224665  0.16258653     0.36610
C89         C  0.30377824  0.19124377  0.18693003    -0.05570
C90         C  0.35334852  0.19730675  0.18626327    -0.32540
C91         C  0.38304368  0.17033112  0.15727984     0.36520
H92         H  0.29995385  0.09796352  0.11268933     0.16890
O93         O  0.24303870  0.13342989  0.17511990    -0.60040
H94         H  0.36972394  0.22039201  0.21126212     0.16900
O95         O  0.43113475  0.17718450  0.15831984    -0.60130
H96         H  0.43732261  0.20123796  0.13397795     0.43900
H97         H  0.24997432  0.10358066  0.19035432     0.43850
C98         C  0.18076827  0.20121890  0.19200961    -0.05210
C99         C  0.14131739  0.18013115  0.21368715    -0.32640
C100        C  0.11131159  0.15116645  0.18777270     0.36610
C101        C  0.11901453  0.14375392  0.13802984    -0.05570
C102        C  0.15414150  0.16937705  0.11476176    -0.32540
C103        C  0.18448698  0.19826840  0.14101727     0.36520
H104        H  0.13229755  0.18692670  0.25084888     0.16890
O105        O  0.07609520  0.12882508  0.21237661    -0.60040
H106        H  0.15947387  0.16566809  0.07614779     0.16900
O107        O  0.22011983  0.22037693  0.11703835    -0.60130
H108        H  0.23569122  0.19780239  0.09533681     0.43900
H109        H  0.04994847  0.15133723  0.21557340     0.43850
C110        C  0.31089587  0.31014235  0.30658134    -0.05210
C111        C  0.33465121  0.34714886  0.28491745    -0.32640
C112        C  0.36566630  0.37520705  0.31049038     0.36610
C113        C  0.37088554  0.36928765  0.36030348    -0.05570
C114        C  0.34134243  0.33827579  0.38390480    -0.32540
C115        C  0.30995103  0.31029784  0.35776048     0.36520
H116        H  0.32523686  0.35818503  0.24927138     0.16890
O117        O  0.38743094  0.41071524  0.28704370    -0.60040
H118        H  0.34066905  0.33761195  0.42305384     0.16900
O119        O  0.27233342  0.29151894  0.38182183    -0.60130
H120        H  0.28325680  0.28273695  0.41455418     0.43900
H121        H  0.36507714  0.43677664  0.28992745     0.43690
C122        C  0.30697203  0.18991294  0.30849407    -0.05210
C123        C  0.30691007  0.19483634  0.35905046    -0.32640
C124        C  0.33762813  0.16972314  0.38884100     0.36610
C125        C  0.36946809  0.13826460  0.36814022    -0.05570
C126        C  0.36636376  0.12954321  0.31882675    -0.32540
C127        C  0.33244594  0.15147716  0.29062516     0.36520
H128        H  0.28046040  0.21521595  0.37608361     0.16890
O129        O  0.33521250  0.17525924  0.43799685    -0.60040
H130        H  0.38594813  0.10121487  0.30314783     0.16900
O131        O  0.31734564  0.12758411  0.25145682    -0.60130
H132        H  0.29436861  0.10496806  0.26426035     0.43900
H133        H  0.35576103  0.20186916  0.44513666     0.43850
C134        C  0.19238603  0.31344500  0.30594973    -0.05210
C135        C  0.14579373  0.30023807  0.31808084    -0.32640
C136        C  0.11689263  0.32777412  0.34760090     0.36610
C137        C  0.13413381  0.36966492  0.36490134    -0.05570
C138        C  0.17797266  0.38541144  0.34835382    -0.32540
C139        C  0.20563054  0.35885637  0.31689140     0.36520
H140        H  0.13245241  0.26734988  0.30673245     0.16890
O141        O  0.07240822  0.31299754  0.36020273    -0.60040
H142        H  0.18991795  0.41936171  0.35813694     0.16900
O143        O  0.24374811  0.37892622  0.29513548    -0.60130
H144        H  0.23035445  0.40020141  0.27098341     0.43900
H145        H  0.07717584  0.29313815  0.38870863     0.43850
C146        C  0.37149609  0.35415353  0.12256027    -0.05210
C147        C  0.32714698  0.33966677  0.10599687    -0.32640
C148        C  0.29754596  0.31186417  0.13443645     0.36610
C149        C  0.31191560  0.29806842  0.18113194    -0.05570
C150        C  0.36013564  0.30536207  0.19261393    -0.32540
C151        C  0.38895741  0.33469843  0.16528025     0.36520
H152        H  0.31418969  0.35116005  0.07141322     0.16890
O153        O  0.25506487  0.29780114  0.11587443    -0.60040
H154        H  0.37460130  0.29224269  0.22585022     0.16900
O155        O  0.43372282  0.34466239  0.18132850    -0.60130
H156        H  0.42936956  0.36909295  0.20586391     0.43900
H157        H  0.24198566  0.32288281  0.09594031     0.43850
C158        C  0.40093095  0.40009977  0.88889094     0.42710
N159        N  0.41833365  0.45215937  0.94014291     0.01600
C160        C  0.12261192  0.08363086  0.94487537    -0.06270
H161        H  0.15275102  0.41364206  0.96334055     0.07090
C162        C  0.05718100  0.42066813  0.62426312    -0.06630
Co163      Co  0.00571364  0.50319605  0.91200755     0.74180
N164        N  0.08946747  0.45350626  0.95111995    -0.25800
Co165      Co  0.08660340  0.50313997  0.50622182     0.74070
C166        C  0.10398119  0.40319158  0.61149533     0.42810
N167        N  0.44255405  0.44864415  0.58287238     0.01220
N168        N  0.08383447  0.45355094  0.55978138     0.01320
N169        N  0.07156849  0.08132294  0.88195349    -0.46650
H170        H  0.46665655  0.41630688  0.84221742     0.07080
N171        N  0.05798527  0.45320833  0.91587083     0.01610
N172        N  0.08035009  0.05292832  0.56068525     0.01350
C173        C  0.09281739  0.10840706  0.61030755     0.42950
N174        N  0.41208240  0.44912827  0.54689962    -0.25260
C175        C  0.44511003  0.08771060  0.88099790    -0.06180
N176        N  0.38622354  0.42075413  0.92989106    -0.46370
N177        N  0.11015536  0.08665763  0.57064350    -0.46590
C178        C  0.40072132  0.10885334  0.89736484     0.42730
N179        N  0.05903663  0.05232683  0.91636792     0.01600
N180        N  0.40999865  0.04866938  0.54898699    -0.25280
N181        N  0.45299636  0.45374765  0.90810115    -0.25770
N182        N  0.44036790  0.04917814  0.58494330     0.01240
H183        H  0.34880833  0.08959972  0.53207031     0.07130
H184        H  0.02520393  0.09076981  0.65388127     0.07160
N185        N  0.08893287  0.05242725  0.95290236    -0.25820
N186        N  0.04802223  0.45213575  0.59062771    -0.25440
N187        N  0.41740573  0.05201385  0.94309493     0.01600
C188        C  0.10568465  0.39890033  0.89726051     0.43000
C189        C  0.38225833  0.41390093  0.55197838    -0.06690
N190        N  0.04478930  0.05100679  0.59176210    -0.25430
H191        H  0.03575404  0.41396905  0.65596325     0.07150
N192        N  0.06670402  0.42153120  0.88273272    -0.46660
H193        H  0.35296693  0.40642053  0.52821092     0.07130
C194        C  0.39313051  0.10482616  0.59966441     0.42830
C195        C  0.44512685  0.42200475  0.87411775    -0.06180
Co196      Co  0.41350321  0.00037504  0.99476231     0.73820
N197        N  0.43483014  0.41453881  0.61333701    -0.46370
C198        C  0.11093073  0.10254917  0.89804904     0.43100
N199        N  0.38536810  0.08435074  0.93556163    -0.46360
Co200      Co  0.49372150  0.00006862  0.58857461     0.73890
C201        C  0.04934176  0.08466254  0.62415334    -0.06690
C202        C  0.12150040  0.42058325  0.94209298    -0.06250
N203        N  0.45262303  0.05307800  0.91152593    -0.25780
N204        N  0.11862944  0.42532676  0.57148713    -0.46540
H205        H  0.15362713  0.08923026  0.96693672     0.07110
C206        C  0.37863164  0.08236187  0.55524092    -0.06670
Cl207      Cl  0.99998599  0.00161451  0.50036907    -0.49670
C208        C  0.39747823  0.39063199  0.59600968     0.42860
H209        H  0.46694609  0.09595683  0.85001232     0.07070
N210        N  0.43124645  0.08209590  0.61665200    -0.46380
C211        C  0.22222514  0.22651875  0.77993627    -0.02230
C212        C  0.22503031  0.27993441  0.77856320    -0.02230
C213        C  0.22219612  0.27903747  0.72249009    -0.02230
C214        C  0.21816785  0.22599583  0.72323015    -0.02230
C215        C  0.27741515  0.22325268  0.77640439    -0.02230
C216        C  0.27354412  0.22205057  0.71994287    -0.02230
C217        C  0.27761910  0.27548816  0.71853934    -0.02230
C218        C  0.28034746  0.27729523  0.77554132    -0.02230
C219        C  0.19772210  0.19342494  0.81493158    -0.05210
C220        C  0.19359550  0.14721486  0.80128773    -0.32640
C221        C  0.16398086  0.11745038  0.82700095     0.36610
C222        C  0.14136291  0.13267135  0.86938160    -0.05570
C223        C  0.15112525  0.17619457  0.88707833    -0.32540
C224        C  0.18013320  0.20614442  0.86107527     0.36520
H225        H  0.21042005  0.13510682  0.76846185     0.16890
O226        O  0.15801773  0.07348112  0.81095271    -0.60040
H227        H  0.13640059  0.18704120  0.92151501     0.16900
O228        O  0.19194148  0.24690188  0.88203823    -0.60130
H229        H  0.20516707  0.23952816  0.91423948     0.43900
H230        H  0.13229387  0.07518228  0.78673024     0.43850
C231        C  0.18960207  0.31336107  0.69716303    -0.05210
C232        C  0.20807155  0.35522400  0.68096813    -0.32640
C233        C  0.18133603  0.38410239  0.65136948     0.36610
C234        C  0.13376298  0.37352486  0.64149251    -0.05570
C235        C  0.11321284  0.33552620  0.66334483    -0.32540
C236        C  0.14025030  0.30617575  0.69196842     0.36520
H237        H  0.24403224  0.36489499  0.68955927     0.16890
O238        O  0.20159679  0.42314103  0.63350638    -0.60040
H239        H  0.07584132  0.32843399  0.65825966     0.16900
O240        O  0.11762986  0.27126047  0.71520605    -0.60130
H241        H  0.09127333  0.28527841  0.73397264     0.43900
H242        H  0.21964721  0.41323069  0.60445638     0.43850
C243        C  0.36346898  0.13573113  0.62864420    -0.05210
C244        C  0.31485229  0.12721000  0.63128882    -0.32640
C245        C  0.28577067  0.15224661  0.66258651     0.36610
C246        C  0.30377825  0.19124373  0.68693000    -0.05570
C247        C  0.35334853  0.19730671  0.68626324    -0.32540
C248        C  0.38304368  0.17033107  0.65727980     0.36520
H249        H  0.29995383  0.09796348  0.61268931     0.16890
O250        O  0.24303870  0.13342986  0.67511990    -0.60040
H251        H  0.36972395  0.22039196  0.71126209     0.16900
O252        O  0.43113475  0.17718445  0.65831979    -0.60130
H253        H  0.43732261  0.20123791  0.63397791     0.43900
H254        H  0.24997432  0.10358063  0.69035434     0.43850
C255        C  0.18076828  0.20121888  0.69200959    -0.05210
C256        C  0.14131740  0.18013115  0.71368714    -0.32640
C257        C  0.11131160  0.15116643  0.68777270     0.36610
C258        C  0.11901453  0.14375388  0.63802985    -0.05570
C259        C  0.15414150  0.16937701  0.61476175    -0.32540
C260        C  0.18448698  0.19826836  0.64101725     0.36520
H261        H  0.13229756  0.18692670  0.75084886     0.16890
O262        O  0.07609521  0.12882506  0.71237663    -0.60040
H263        H  0.15947386  0.16566803  0.57614779     0.16900
O264        O  0.22011983  0.22037687  0.61703832    -0.60130
H265        H  0.23569122  0.19780232  0.59533679     0.43900
H266        H  0.04994847  0.15133722  0.71557340     0.43850
C267        C  0.31089592  0.31014233  0.80658130    -0.05210
C268        C  0.33465121  0.34714885  0.78491741    -0.32640
C269        C  0.36566630  0.37520707  0.81049033     0.36610
C270        C  0.37088557  0.36928767  0.86030342    -0.05570
C271        C  0.34134250  0.33827578  0.88390475    -0.32540
C272        C  0.30995112  0.31029780  0.85776044     0.36520
H273        H  0.32523685  0.35818502  0.74927134     0.16890
O274        O  0.38743091  0.41071527  0.78704364    -0.60040
H275        H  0.34066915  0.33761192  0.92305379     0.16900
O276        O  0.27233357  0.29151883  0.88182182    -0.60130
H277        H  0.28325701  0.28273680  0.91455413     0.43900
H278        H  0.36507708  0.43677666  0.78992739     0.43690
C279        C  0.30697203  0.18991290  0.80849405    -0.05210
C280        C  0.30691000  0.19483625  0.85905045    -0.32640
C281        C  0.33762806  0.16972307  0.88884100     0.36610
C282        C  0.36946808  0.13826459  0.86814023    -0.05570
C283        C  0.36636381  0.12954323  0.81882675    -0.32540
C284        C  0.33244599  0.15147716  0.79062514     0.36520
H285        H  0.28046027  0.21521581  0.87608358     0.16890
O286        O  0.33521235  0.17525912  0.93799686    -0.60040
H287        H  0.38594823  0.10121492  0.80314783     0.16900
O288        O  0.31734574  0.12758409  0.75145679    -0.60130
H289        H  0.29436869  0.10496805  0.76426030     0.43900
H290        H  0.35576084  0.20186906  0.94513672     0.43850
C291        C  0.19238607  0.31344500  0.80594969    -0.05210
C292        C  0.14579376  0.30023808  0.81808080    -0.32640
C293        C  0.11689267  0.32777413  0.84760086     0.36610
C294        C  0.13413385  0.36966493  0.86490131    -0.05570
C295        C  0.17797271  0.38541144  0.84835379    -0.32540
C296        C  0.20563058  0.35885637  0.81689136     0.36520
H297        H  0.13245244  0.26734989  0.80673241     0.16890
O298        O  0.07240825  0.31299756  0.86020268    -0.60040
H299        H  0.18991801  0.41936171  0.85813691     0.16900
O300        O  0.24374815  0.37892622  0.79513544    -0.60130
H301        H  0.23035448  0.40020131  0.77098327     0.43900
H302        H  0.07717587  0.29313817  0.88870858     0.43850
C303        C  0.37149620  0.35415343  0.62256027    -0.05210
C304        C  0.32714713  0.33966663  0.60599683    -0.32640
C305        C  0.29754609  0.31186405  0.63443641     0.36610
C306        C  0.31191568  0.29806835  0.68113193    -0.05570
C307        C  0.36013571  0.30536202  0.69261396    -0.32540
C308        C  0.38895749  0.33469838  0.66528028     0.36520
H309        H  0.31418987  0.35115987  0.57141315     0.16890
O310        O  0.25506502  0.29780100  0.61587435    -0.60040
H311        H  0.37460135  0.29224265  0.72585026     0.16900
O312        O  0.43372289  0.34466237  0.68132857    -0.60130
H313        H  0.42936959  0.36909295  0.70586395     0.43900
H314        H  0.24198582  0.32288265  0.59594021     0.43850
C315        C  0.40093095  0.90009972  0.38889100     0.42710
N316        N  0.41833364  0.95215933  0.44014295     0.01600
C317        C  0.12261193  0.58363083  0.44487537    -0.06270
H318        H  0.15275101  0.91364206  0.46334052     0.07090
C319        C  0.05718097  0.92066813  0.12426310    -0.06630
Co320      Co  0.00571362  0.00319603  0.41200756     0.74180
N321        N  0.08946747  0.95350625  0.45111993    -0.25800
Co322      Co  0.08660340  0.00313997  0.00622181     0.74070
C323        C  0.10398115  0.90319158  0.11149532     0.42810
N324        N  0.44255404  0.94864420  0.08287242     0.01220
N325        N  0.08383445  0.95355094  0.05978137     0.01320
N326        N  0.07156849  0.58132291  0.38195349    -0.46650
H327        H  0.46665654  0.91630683  0.34221747     0.07080
N328        N  0.05798526  0.95320832  0.41587081     0.01610
N329        N  0.08035009  0.55292835  0.06068525     0.01350
C330        C  0.09281739  0.60840710  0.11030754     0.42950
N331        N  0.41208239  0.94912830  0.04689965    -0.25260
C332        C  0.44511002  0.58771062  0.38099791    -0.06180
N333        N  0.38622353  0.92075408  0.42989111    -0.46370
N334        N  0.11015537  0.58665765  0.07064350    -0.46590
C335        C  0.40072131  0.60885335  0.39736486     0.42730
N336        N  0.05903662  0.55232682  0.41636794     0.01600
N337        N  0.40999866  0.54866941  0.04898697    -0.25280
N338        N  0.45299634  0.95374760  0.40810119    -0.25770
N339        N  0.44036791  0.54917815  0.08494329     0.01240
H340        H  0.34880836  0.58959977  0.03207030     0.07130
H341        H  0.02520392  0.59076988  0.15388124     0.07160
N342        N  0.08893287  0.55242725  0.45290237    -0.25820
N343        N  0.04802220  0.95213575  0.09062768    -0.25440
N344        N  0.41740573  0.55201385  0.44309494     0.01600
C345        C  0.10568463  0.89890033  0.39726049     0.43000
C346        C  0.38225833  0.91390096  0.05197841    -0.06690
N347        N  0.04478930  0.55100684  0.09176209    -0.25430
H348        H  0.03575400  0.91396905  0.15596323     0.07150
N349        N  0.06670400  0.92153119  0.38273270    -0.46660
H350        H  0.35296694  0.90642055  0.02821094     0.07130
C351        C  0.39313054  0.60482618  0.09966441     0.42830
C352        C  0.44512684  0.92200470  0.37411780    -0.06180
Co353      Co  0.41350321  0.50037503  0.49476231     0.73820
N354        N  0.43483012  0.91453887  0.11333705    -0.46370
C355        C  0.11093074  0.60254913  0.39804903     0.43100
N356        N  0.38536809  0.58435074  0.43556165    -0.46360
Co357      Co  0.49372149  0.50006861  0.08857460     0.73890
C358        C  0.04934175  0.58466259  0.12415332    -0.06690
C359        C  0.12150039  0.92058325  0.44209295    -0.06250
N360        N  0.45262302  0.55307800  0.41152594    -0.25780
N361        N  0.11862942  0.92532675  0.07148713    -0.46540
H362        H  0.15362714  0.58923023  0.46693671     0.07110
C363        C  0.37863167  0.58236191  0.05524091    -0.06670
Cl364      Cl  0.99998600  0.50161454  0.00036907    -0.49670
C365        C  0.39747822  0.89063204  0.09600972     0.42860
H366        H  0.46694608  0.59595685  0.35001233     0.07070
N367        N  0.43124647  0.58209591  0.11665200    -0.46380
C368        C  0.22222514  0.72651875  0.27993628    -0.02230
C369        C  0.22503029  0.77993441  0.27856320    -0.02230
C370        C  0.22219611  0.77903747  0.22249009    -0.02230
C371        C  0.21816786  0.72599582  0.22323016    -0.02230
C372        C  0.27741514  0.72325270  0.27640440    -0.02230
C373        C  0.27354413  0.72205058  0.21994288    -0.02230
C374        C  0.27761909  0.77548817  0.21853935    -0.02230
C375        C  0.28034744  0.77729525  0.27554132    -0.02230
C376        C  0.19772211  0.69342493  0.31493158    -0.05210
C377        C  0.19359554  0.64721485  0.30128774    -0.32640
C378        C  0.16398091  0.61745035  0.32700096     0.36610
C379        C  0.14136292  0.63267132  0.36938159    -0.05570
C380        C  0.15112524  0.67619455  0.38707831    -0.32540
C381        C  0.18013319  0.70614441  0.36107526     0.36520
H382        H  0.21042010  0.63510681  0.26846186     0.16890
O383        O  0.15801781  0.57348109  0.31095273    -0.60040
H384        H  0.13640055  0.68704118  0.42151499     0.16900
O385        O  0.19194144  0.74690187  0.38203823    -0.60130
H386        H  0.20516704  0.73952815  0.41423948     0.43900
H387        H  0.13229396  0.57518222  0.28673025     0.43850
C388        C  0.18960205  0.81336107  0.19716302    -0.05210
C389        C  0.20807152  0.85522401  0.18096814    -0.32640
C390        C  0.18133599  0.88410240  0.15136949     0.36610
C391        C  0.13376294  0.87352485  0.14149251    -0.05570
C392        C  0.11321281  0.83552619  0.16334482    -0.32540
C393        C  0.14025028  0.80617574  0.19196840     0.36520
H394        H  0.24403220  0.86489501  0.18955929     0.16890
O395        O  0.20159674  0.92314105  0.13350642    -0.60040
H396        H  0.07584130  0.82843397  0.15825963     0.16900
O397        O  0.11762985  0.77126044  0.21520602    -0.60130
H398        H  0.09127333  0.78527838  0.23397262     0.43900
H399        H  0.21964718  0.91323073  0.10445642     0.43850
C400        C  0.36346901  0.63573115  0.12864420    -0.05210
C401        C  0.31485232  0.62721002  0.13128882    -0.32640
C402        C  0.28577069  0.65224663  0.16258652     0.36610
C403        C  0.30377827  0.69124375  0.18693002    -0.05570
C404        C  0.35334854  0.69730673  0.18626326    -0.32540
C405        C  0.38304370  0.67033109  0.15727981     0.36520
H406        H  0.29995386  0.59796351  0.11268931     0.16890
O407        O  0.24303872  0.63342987  0.17511989    -0.60040
H408        H  0.36972397  0.72039198  0.21126210     0.16900
O409        O  0.43113477  0.67718447  0.15831981    -0.60130
H410        H  0.43732262  0.70123793  0.13397793     0.43900
H411        H  0.24997434  0.60358064  0.19035433     0.43850
C412        C  0.18076829  0.70121887  0.19200960    -0.05210
C413        C  0.14131742  0.68013112  0.21368715    -0.32640
C414        C  0.11131163  0.65116641  0.18777270     0.36610
C415        C  0.11901454  0.64375389  0.13802985    -0.05570
C416        C  0.15414150  0.66937703  0.11476175    -0.32540
C417        C  0.18448698  0.69826837  0.14101726     0.36520
H418        H  0.13229759  0.68692667  0.25084888     0.16890
O419        O  0.07609527  0.62882500  0.21237663    -0.60040
H420        H  0.15947385  0.66566808  0.07614778     0.16900
O421        O  0.22011984  0.72037690  0.11703833    -0.60130
H422        H  0.23569123  0.69780235  0.09533680     0.43900
H423        H  0.04994853  0.65133715  0.21557347     0.43850
C424        C  0.31089588  0.81014235  0.30658132    -0.05210
C425        C  0.33465120  0.84714886  0.28491744    -0.32640
C426        C  0.36566629  0.87520705  0.31049038     0.36610
C427        C  0.37088554  0.86928764  0.36030346    -0.05570
C428        C  0.34134244  0.83827578  0.38390479    -0.32540
C429        C  0.30995104  0.81029783  0.35776046     0.36520
H430        H  0.32523685  0.85818504  0.24927137     0.16890
O431        O  0.38743092  0.91071525  0.28704370    -0.60040
H432        H  0.34066906  0.83761193  0.42305382     0.16900
O433        O  0.27233343  0.79151892  0.38182181    -0.60130
H434        H  0.28325682  0.78273693  0.41455416     0.43900
H435        H  0.36507711  0.93677665  0.28992746     0.43690
C436        C  0.30697203  0.68991293  0.30849407    -0.05210
C437        C  0.30691004  0.69483632  0.35905047    -0.32640
C438        C  0.33762809  0.66972313  0.38884101     0.36610
C439        C  0.36946807  0.63826461  0.36814025    -0.05570
C440        C  0.36636377  0.62954321  0.31882678    -0.32540
C441        C  0.33244596  0.65147716  0.29062517     0.36520
H442        H  0.28046035  0.71521592  0.37608360     0.16890
O443        O  0.33521243  0.67525923  0.43799687    -0.60040
H444        H  0.38594816  0.60121489  0.30314787     0.16900
O445        O  0.31734569  0.62758411  0.25145681    -0.60130
H446        H  0.29436866  0.60496805  0.26426033     0.43900
H447        H  0.35576095  0.70186915  0.44513669     0.43850
C448        C  0.19238604  0.81344500  0.30594967    -0.05210
C449        C  0.14579374  0.80023807  0.31808079    -0.32640
C450        C  0.11689265  0.82777413  0.34760085     0.36610
C451        C  0.13413383  0.86966493  0.36490128    -0.05570
C452        C  0.17797267  0.88541145  0.34835374    -0.32540
C453        C  0.20563054  0.85885638  0.31689131     0.36520
H454        H  0.13245242  0.76734988  0.30673241     0.16890
O455        O  0.07240824  0.81299755  0.36020269    -0.60040
H456        H  0.18991796  0.91936173  0.35813684     0.16900
O457        O  0.24374811  0.87892622  0.29513538    -0.60130
H458        H  0.23035442  0.90020135  0.27098325     0.43900
H459        H  0.07717587  0.79313816  0.38870859     0.43850
C460        C  0.37149619  0.85415348  0.12256031    -0.05210
C461        C  0.32714712  0.83966668  0.10599686    -0.32640
C462        C  0.29754608  0.81186408  0.13443643     0.36610
C463        C  0.31191568  0.79806838  0.18113195    -0.05570
C464        C  0.36013571  0.80536205  0.19261398    -0.32540
C465        C  0.38895748  0.83469842  0.16528032     0.36520
H466        H  0.31418986  0.85115992  0.07141318     0.16890
O467        O  0.25506502  0.79780103  0.11587436    -0.60040
H468        H  0.37460134  0.79224267  0.22585028     0.16900
O469        O  0.43372287  0.84466241  0.18132862    -0.60130
H470        H  0.42936957  0.86909300  0.20586399     0.43900
H471        H  0.24198582  0.82288268  0.09594023     0.43850
C472        C  0.40093094  0.90009975  0.88889102     0.42710
N473        N  0.41833364  0.95215935  0.94014299     0.01600
C474        C  0.12261197  0.58363081  0.94487537    -0.06270
H475        H  0.15275104  0.91364210  0.96334052     0.07090
C476        C  0.05718096  0.92066809  0.62426309    -0.06630
Co477      Co  0.00571362  0.00319605  0.91200756     0.74180
N478        N  0.08946748  0.95350629  0.95111994    -0.25800
Co479      Co  0.08660339  0.00313993  0.50622180     0.74070
C480        C  0.10398115  0.90319154  0.61149531     0.42810
N481        N  0.44255404  0.94864417  0.58287238     0.01220
N482        N  0.08383444  0.95355090  0.55978136     0.01320
N483        N  0.07156855  0.58132291  0.88195348    -0.46650
H484        H  0.46665653  0.91630686  0.84221750     0.07080
N485        N  0.05798528  0.95320835  0.91587082     0.01610
N486        N  0.08035010  0.55292836  0.56068527     0.01350
C487        C  0.09281741  0.60840710  0.61030756     0.42950
N488        N  0.41208239  0.94912827  0.54689961    -0.25260
C489        C  0.44511009  0.58771065  0.88099788    -0.06180
N490        N  0.38622352  0.92075411  0.92989114    -0.46370
N491        N  0.11015538  0.58665767  0.57064351    -0.46590
C492        C  0.40072138  0.60885340  0.89736482     0.42730
N493        N  0.05903667  0.55232681  0.91636792     0.01600
N494        N  0.40999868  0.54866938  0.54898703    -0.25280
N495        N  0.45299634  0.95374763  0.90810122    -0.25770
N496        N  0.44036794  0.54917812  0.58494334     0.01240
H497        H  0.34880837  0.58959975  0.53207037     0.07130
H498        H  0.02520395  0.59076984  0.65388129     0.07160
N499        N  0.08893290  0.55242723  0.95290236    -0.25820
N500        N  0.04802219  0.95213571  0.59062767    -0.25440
N501        N  0.41740577  0.55201387  0.94309489     0.01600
C502        C  0.10568466  0.89890036  0.89726049     0.43000
C503        C  0.38225834  0.91390093  0.55197837    -0.06690
N504        N  0.04478932  0.55100683  0.59176212    -0.25430
H505        H  0.03575399  0.91396901  0.65596322     0.07150
N506        N  0.06670402  0.92153122  0.88273271    -0.46660
H507        H  0.35296694  0.90642051  0.52821090     0.07130
C508        C  0.39313057  0.60482615  0.59966447     0.42830
C509        C  0.44512684  0.92200473  0.87411783    -0.06180
Co510      Co  0.41350321  0.50037505  0.99476225     0.73820
N511        N  0.43483012  0.91453884  0.61333701    -0.46370
C512        C  0.11093079  0.60254912  0.89804904     0.43100
N513        N  0.38536815  0.58435078  0.93556160    -0.46360
Co514      Co  0.49372152  0.50006858  0.58857462     0.73890
C515        C  0.04934178  0.58466257  0.62415336    -0.06690
C516        C  0.12150042  0.92058329  0.94209296    -0.06250
N517        N  0.45262307  0.55307802  0.91152590    -0.25780
N518        N  0.11862941  0.92532671  0.57148712    -0.46540
H519        H  0.15362717  0.58923020  0.96693673     0.07110
C520        C  0.37863169  0.58236188  0.55524098    -0.06670
Cl521      Cl  0.99998600  0.50161453  0.50036911    -0.49670
C522        C  0.39747823  0.89063201  0.59600968     0.42860
H523        H  0.46694615  0.59595688  0.85001230     0.07070
N524        N  0.43124651  0.58209587  0.61665206    -0.46380
C525        C  0.22222516  0.72651877  0.77993630    -0.02230
C526        C  0.22503030  0.77993442  0.77856321    -0.02230
C527        C  0.22219612  0.77903748  0.72249010    -0.02230
C528        C  0.21816788  0.72599583  0.72323018    -0.02230
C529        C  0.27741517  0.72325273  0.77640442    -0.02230
C530        C  0.27354415  0.72205059  0.71994290    -0.02230
C531        C  0.27761910  0.77548818  0.71853936    -0.02230
C532        C  0.28034745  0.77729527  0.77554133    -0.02230
C533        C  0.19772215  0.69342494  0.81493160    -0.05210
C534        C  0.19359558  0.64721486  0.80128775    -0.32640
C535        C  0.16398095  0.61745035  0.82700097     0.36610
C536        C  0.14136298  0.63267131  0.86938161    -0.05570
C537        C  0.15112530  0.67619453  0.88707834    -0.32540
C538        C  0.18013323  0.70614440  0.86107529     0.36520
H539        H  0.21042012  0.63510683  0.76846186     0.16890
O540        O  0.15801785  0.57348109  0.81095272    -0.60040
H541        H  0.13640062  0.68704116  0.92151502     0.16900
O542        O  0.19194148  0.74690186  0.88203826    -0.60130
H543        H  0.20516710  0.73952814  0.91423950     0.43900
H544        H  0.13229399  0.57518224  0.78673025     0.43850
C545        C  0.18960206  0.81336106  0.69716303    -0.05210
C546        C  0.20807152  0.85522401  0.68096814    -0.32640
C547        C  0.18133598  0.88410238  0.65136949     0.36610
C548        C  0.13376294  0.87352483  0.64149251    -0.05570
C549        C  0.11321281  0.83552617  0.66334484    -0.32540
C550        C  0.14025029  0.80617573  0.69196843     0.36520
H551        H  0.24403221  0.86489501  0.68955928     0.16890
O552        O  0.20159672  0.92314103  0.63350640    -0.60040
H553        H  0.07584130  0.82843394  0.65825965     0.16900
O554        O  0.11762986  0.77126044  0.71520606    -0.60130
H555        H  0.09127335  0.78527839  0.73397267     0.43900
H556        H  0.21964716  0.91323072  0.60445641     0.43850
C557        C  0.36346904  0.63573112  0.62864427    -0.05210
C558        C  0.31485235  0.62721001  0.63128887    -0.32640
C559        C  0.28577072  0.65224663  0.66258655     0.36610
C560        C  0.30377829  0.69124374  0.68693006    -0.05570
C561        C  0.35334857  0.69730671  0.68626332    -0.32540
C562        C  0.38304374  0.67033106  0.65727989     0.36520
H563        H  0.29995389  0.59796350  0.61268935     0.16890
O564        O  0.24303874  0.63342988  0.67511990    -0.60040
H565        H  0.36972399  0.72039196  0.71126217     0.16900
O566        O  0.43113481  0.67718443  0.65831991    -0.60130
H567        H  0.43732268  0.70123789  0.63397803     0.43900
H568        H  0.24997434  0.60358064  0.69035433     0.43850
C569        C  0.18076831  0.70121888  0.69200962    -0.05210
C570        C  0.14131744  0.68013113  0.71368717    -0.32640
C571        C  0.11131164  0.65116642  0.68777273     0.36610
C572        C  0.11901455  0.64375389  0.63802987    -0.05570
C573        C  0.15414152  0.66937703  0.61476178    -0.32540
C574        C  0.18448700  0.69826837  0.64101728     0.36520
H575        H  0.13229761  0.68692667  0.75084890     0.16890
O576        O  0.07609528  0.62882502  0.71237666    -0.60040
H577        H  0.15947387  0.66566808  0.57614781     0.16900
O578        O  0.22011986  0.72037689  0.61703835    -0.60130
H579        H  0.23569125  0.69780233  0.59533683     0.43900
H580        H  0.04994854  0.65133716  0.71557348     0.43850
C581        C  0.31089588  0.81014238  0.80658133    -0.05210
C582        C  0.33465123  0.84714887  0.78491744    -0.32640
C583        C  0.36566633  0.87520706  0.81049038     0.36610
C584        C  0.37088554  0.86928768  0.86030348    -0.05570
C585        C  0.34134240  0.83827584  0.88390480    -0.32540
C586        C  0.30995100  0.81029790  0.85776047     0.36520
H587        H  0.32523691  0.85818504  0.74927136     0.16890
O588        O  0.38743099  0.91071524  0.78704370    -0.60040
H589        H  0.34066899  0.83761202  0.92305383     0.16900
O590        O  0.27233334  0.79151905  0.88182180    -0.60130
H591        H  0.28325667  0.78273711  0.91455418     0.43900
H592        H  0.36507719  0.93677665  0.78992743     0.43690
C593        C  0.30697207  0.68991297  0.80849409    -0.05210
C594        C  0.30691017  0.69483642  0.85905047    -0.32640
C595        C  0.33762824  0.66972324  0.88884100     0.36610
C596        C  0.36946815  0.63826466  0.86814023    -0.05570
C597        C  0.36636375  0.62954320  0.81882677    -0.32540
C598        C  0.33244592  0.65147715  0.79062519     0.36520
H599        H  0.28046054  0.71521608  0.87608362     0.16890
O600        O  0.33521267  0.67525940  0.93799685    -0.60040
H601        H  0.38594809  0.60121484  0.80314787     0.16900
O602        O  0.31734557  0.62758408  0.75145689    -0.60130
H603        H  0.29436856  0.60496803  0.76426047     0.43900
H604        H  0.35576123  0.70186932  0.94513660     0.43850
C605        C  0.19238606  0.81344502  0.80594968    -0.05210
C606        C  0.14579377  0.80023808  0.81808082    -0.32640
C607        C  0.11689268  0.82777414  0.84760088     0.36610
C608        C  0.13413385  0.86966496  0.86490128    -0.05570
C609        C  0.17797268  0.88541149  0.84835372    -0.32540
C610        C  0.20563055  0.85885640  0.81689130     0.36520
H611        H  0.13245245  0.76734988  0.80673246     0.16890
O612        O  0.07240827  0.81299756  0.86020275    -0.60040
H613        H  0.18991797  0.91936177  0.85813681     0.16900
O614        O  0.24374811  0.87892624  0.79513535    -0.60130
H615        H  0.23035443  0.90020138  0.77098323     0.43900
H616        H  0.07717592  0.79313819  0.88870865     0.43850
C617        C  0.37149620  0.85415345  0.62256028    -0.05210
C618        C  0.32714712  0.83966666  0.60599684    -0.32640
C619        C  0.29754608  0.81186408  0.63443642     0.36610
C620        C  0.31191568  0.79806838  0.68113194    -0.05570
C621        C  0.36013572  0.80536203  0.69261397    -0.32540
C622        C  0.38895749  0.83469839  0.66528029     0.36520
H623        H  0.31418986  0.85115990  0.57141316     0.16890
O624        O  0.25506501  0.79780103  0.61587437    -0.60040
H625        H  0.37460135  0.79224266  0.72585026     0.16900
O626        O  0.43372289  0.84466238  0.68132857    -0.60130
H627        H  0.42936960  0.86909296  0.70586395     0.43900
H628        H  0.24198581  0.82288268  0.59594022     0.43850
C629        C  0.90093091  0.40009974  0.38889106     0.42710
N630        N  0.91833363  0.45215933  0.44014303     0.01600
C631        C  0.62261194  0.08363081  0.44487536    -0.06270
H632        H  0.65275101  0.41364209  0.46334047     0.07090
C633        C  0.55718090  0.42066806  0.12426306    -0.06630
Co634      Co  0.50571361  0.50319607  0.41200756     0.74180
N635        N  0.58946747  0.45350629  0.45111990    -0.25800
Co636      Co  0.58660339  0.50313994  0.00622181     0.74070
C637        C  0.60398109  0.40319150  0.11149528     0.42810
N638        N  0.94255403  0.44864422  0.08287240     0.01220
N639        N  0.58383441  0.45355088  0.05978134     0.01320
N640        N  0.57156852  0.08132290  0.38195347    -0.46650
H641        H  0.96665650  0.41630684  0.34221752     0.07080
N642        N  0.55798526  0.45320837  0.41587078     0.01610
N643        N  0.58035009  0.05292835  0.06068527     0.01350
C644        C  0.59281739  0.10840710  0.11030756     0.42950
N645        N  0.91208238  0.44912833  0.04689963    -0.25260
C646        C  0.94511004  0.08771058  0.38099787    -0.06180
N647        N  0.88622351  0.42075410  0.42989118    -0.46370
N648        N  0.61015536  0.08665766  0.07064351    -0.46590
C649        C  0.90072134  0.10885334  0.39736482     0.42730
N650        N  0.55903663  0.05232682  0.41636792     0.01600
N651        N  0.90999867  0.04866942  0.04898700    -0.25280
N652        N  0.95299633  0.45374760  0.40810125    -0.25770
N653        N  0.94036793  0.04917818  0.08494331     0.01240
H654        H  0.84880837  0.08959979  0.03207032     0.07130
H655        H  0.52520392  0.09076985  0.15388128     0.07160
N656        N  0.58893286  0.05242724  0.45290236    -0.25820
N657        N  0.54802216  0.45213570  0.09062765    -0.25440
N658        N  0.91740574  0.05201384  0.44309491     0.01600
C659        C  0.60568463  0.39890038  0.39726044     0.43000
C660        C  0.88225832  0.41390099  0.05197840    -0.06690
N661        N  0.54478930  0.05100683  0.09176211    -0.25430
H662        H  0.53575394  0.41396898  0.15596318     0.07150
N663        N  0.56670399  0.42153125  0.38273266    -0.46660
H664        H  0.85296692  0.40642058  0.02821093     0.07130
C665        C  0.89313057  0.10482622  0.09966442     0.42830
C666        C  0.94512681  0.42200471  0.37411786    -0.06180
Co667      Co  0.91350321  0.00037503  0.49476229     0.73820
N668        N  0.93483011  0.41453890  0.11333704    -0.46370
C669        C  0.61093077  0.10254910  0.39804901     0.43100
N670        N  0.88536812  0.08435074  0.43556162    -0.46360
Co671      Co  0.99372152  0.00006865  0.08857462     0.73890
C672        C  0.54934176  0.08466258  0.12415335    -0.06690
C673        C  0.62150040  0.42058329  0.44209290    -0.06250
N674        N  0.95262303  0.05307797  0.41152591    -0.25780
N675        N  0.61862936  0.42532668  0.07148710    -0.46540
H676        H  0.65362716  0.08923020  0.46693671     0.07110
C677        C  0.87863168  0.08236193  0.05524094    -0.06670
Cl678      Cl  0.49998599  0.00161454  0.00036909    -0.49670
C679        C  0.89747821  0.39063208  0.09600972     0.42860
H680        H  0.96694609  0.09595680  0.35001228     0.07070
N681        N  0.93124650  0.08209594  0.11665201    -0.46380
C682        C  0.72222515  0.22651876  0.27993628    -0.02230
C683        C  0.72503027  0.27993441  0.27856320    -0.02230
C684        C  0.72219610  0.27903748  0.22249010    -0.02230
C685        C  0.71816787  0.22599583  0.22323016    -0.02230
C686        C  0.77741515  0.22325273  0.27640442    -0.02230
C687        C  0.77354415  0.22205060  0.21994290    -0.02230
C688        C  0.77761909  0.27548820  0.21853936    -0.02230
C689        C  0.78034742  0.27729528  0.27554134    -0.02230
C690        C  0.69772214  0.19342492  0.31493158    -0.05210
C691        C  0.69359554  0.14721484  0.30128770    -0.32640
C692        C  0.66398091  0.11745034  0.32700092     0.36610
C693        C  0.64136296  0.13267128  0.36938158    -0.05570
C694        C  0.65112532  0.17619449  0.38707834    -0.32540
C695        C  0.68013326  0.20614436  0.36107529     0.36520
H696        H  0.71042006  0.13510683  0.26846180     0.16890
O697        O  0.65801777  0.07348109  0.31095265    -0.60040
H698        H  0.63640066  0.18704111  0.42151503     0.16900
O699        O  0.69194152  0.24690181  0.38203827    -0.60130
H700        H  0.70516713  0.23952808  0.41423951     0.43900
H701        H  0.63229390  0.07518227  0.28673019     0.43850
C702        C  0.68960203  0.31336106  0.19716302    -0.05210
C703        C  0.70807149  0.35522398  0.18096808    -0.32640
C704        C  0.68133594  0.38410235  0.15136943     0.36610
C705        C  0.63376289  0.37352480  0.14149249    -0.05570
C706        C  0.61321277  0.33552616  0.16334487    -0.32540
C707        C  0.64025026  0.30617573  0.19196846     0.36520
H708        H  0.74403218  0.36489499  0.18955920     0.16890
O709        O  0.70159668  0.42314098  0.13350630    -0.60040
H710        H  0.57584125  0.32843394  0.15825972     0.16900
O711        O  0.61762984  0.27126047  0.21520614    -0.60130
H712        H  0.59127334  0.28527843  0.23397276     0.43900
H713        H  0.71964711  0.41323064  0.10445631     0.43850
C714        C  0.86346904  0.13573119  0.12864422    -0.05210
C715        C  0.81485235  0.12721006  0.13128882    -0.32640
C716        C  0.78577072  0.15224666  0.16258653     0.36610
C717        C  0.80377829  0.19124377  0.18693004    -0.05570
C718        C  0.85334857  0.19730675  0.18626329    -0.32540
C719        C  0.88304373  0.17033112  0.15727984     0.36520
H720        H  0.79995389  0.09796355  0.11268930     0.16890
O721        O  0.74303875  0.13342990  0.17511989    -0.60040
H722        H  0.86972399  0.22039201  0.21126214     0.16900
O723        O  0.93113480  0.17718450  0.15831984    -0.60130
H724        H  0.93732266  0.20123797  0.13397796     0.43900
H725        H  0.74997436  0.10358064  0.19035426     0.43850
C726        C  0.68076830  0.20121889  0.19200960    -0.05210
C727        C  0.64131742  0.18013115  0.21368715    -0.32640
C728        C  0.61131161  0.15116644  0.18777271     0.36610
C729        C  0.61901453  0.14375390  0.13802986    -0.05570
C730        C  0.65414151  0.16937703  0.11476176    -0.32540
C731        C  0.68448699  0.19826837  0.14101726     0.36520
H732        H  0.63229758  0.18692671  0.25084888     0.16890
O733        O  0.57609523  0.12882506  0.21237664    -0.60040
H734        H  0.65947386  0.16566806  0.07614779     0.16900
O735        O  0.72011985  0.22037689  0.11703833    -0.60130
H736        H  0.73569123  0.19780233  0.09533680     0.43900
H737        H  0.54994850  0.15133722  0.21557344     0.43850
C738        C  0.81089582  0.31014241  0.30658135    -0.05210
C739        C  0.83465117  0.34714890  0.28491747    -0.32640
C740        C  0.86566627  0.37520709  0.31049042     0.36610
C741        C  0.87088549  0.36928769  0.36030352    -0.05570
C742        C  0.84134234  0.33827586  0.38390483    -0.32540
C743        C  0.80995093  0.31029793  0.35776049     0.36520
H744        H  0.82523686  0.35818507  0.24927139     0.16890
O745        O  0.88743093  0.41071527  0.28704375    -0.60040
H746        H  0.84066893  0.33761203  0.42305387     0.16900
O747        O  0.77233326  0.29151910  0.38182182    -0.60130
H748        H  0.78325657  0.28273716  0.41455420     0.43900
H749        H  0.86507714  0.43677668  0.28992750     0.43690
C750        C  0.80697206  0.18991297  0.30849408    -0.05210
C751        C  0.80691019  0.19483644  0.35905047    -0.32640
C752        C  0.83762824  0.16972323  0.38884099     0.36610
C753        C  0.86946811  0.13826461  0.36814022    -0.05570
C754        C  0.86636369  0.12954315  0.31882676    -0.32540
C755        C  0.83244588  0.15147713  0.29062518     0.36520
H756        H  0.78046060  0.21521615  0.37608362     0.16890
O757        O  0.83521270  0.17525941  0.43799684    -0.60040
H758        H  0.88594800  0.10121477  0.30314786     0.16900
O759        O  0.81734553  0.12758409  0.25145686    -0.60130
H760        H  0.79436851  0.10496805  0.26426042     0.43900
H761        H  0.85576129  0.20186931  0.44513657     0.43850
C762        C  0.69238602  0.31344501  0.30594966    -0.05210
C763        C  0.64579376  0.30023804  0.31808088    -0.32640
C764        C  0.61689268  0.32777411  0.34760093     0.36610
C765        C  0.63413381  0.36966497  0.36490123    -0.05570
C766        C  0.67797261  0.38541153  0.34835358    -0.32540
C767        C  0.70563048  0.35885642  0.31689118     0.36520
H768        H  0.63245245  0.26734982  0.30673257     0.16890
O769        O  0.57240830  0.31299749  0.36020288    -0.60040
H770        H  0.68991786  0.41936184  0.35813660     0.16900
O771        O  0.74374801  0.37892625  0.29513516    -0.60130
H772        H  0.73035429  0.40020143  0.27098310     0.43900
H773        H  0.57717601  0.29313818  0.38870882     0.43850
C774        C  0.87149618  0.35415352  0.12256032    -0.05210
C775        C  0.82714712  0.33966668  0.10599686    -0.32640
C776        C  0.79754609  0.31186409  0.13443643     0.36610
C777        C  0.81191568  0.29806841  0.18113196    -0.05570
C778        C  0.86013570  0.30536209  0.19261400    -0.32540
C779        C  0.88895747  0.33469847  0.16528034     0.36520
H780        H  0.81418987  0.35115991  0.07141317     0.16890
O781        O  0.75506504  0.29780100  0.11587436    -0.60040
H782        H  0.87460133  0.29224272  0.22585030     0.16900
O783        O  0.93372285  0.34466249  0.18132865    -0.60130
H784        H  0.92936953  0.36909309  0.20586400     0.43900
H785        H  0.74198584  0.32288264  0.09594020     0.43850
C786        C  0.90093090  0.40009979  0.88889098     0.42710
N787        N  0.91833363  0.45215937  0.94014296     0.01600
C788        C  0.62261195  0.08363083  0.94487537    -0.06270
H789        H  0.65275106  0.41364211  0.96334046     0.07090
C790        C  0.55718095  0.42066801  0.62426300    -0.06630
Co791      Co  0.50571365  0.50319608  0.91200754     0.74180
N792        N  0.58946749  0.45350628  0.95111991    -0.25800
Co793      Co  0.58660339  0.50313994  0.50622179     0.74070
C794        C  0.60398113  0.40319143  0.61149517     0.42810
N795        N  0.94255409  0.44864418  0.58287245     0.01220
N796        N  0.58383444  0.45355087  0.55978130     0.01320
N797        N  0.57156852  0.08132292  0.88195349    -0.46650
H798        H  0.96665650  0.41630686  0.84221746     0.07080
N799        N  0.55798529  0.45320837  0.91587078     0.01610
N800        N  0.58035007  0.05292835  0.56068525     0.01350
C801        C  0.59281735  0.10840709  0.61030755     0.42950
N802        N  0.91208243  0.44912828  0.54689969    -0.25260
C803        C  0.94511002  0.08771057  0.88099784    -0.06180
N804        N  0.88622350  0.42075414  0.92989111    -0.46370
N805        N  0.61015533  0.08665766  0.57064350    -0.46590
C806        C  0.90072131  0.10885332  0.89736479     0.42730
N807        N  0.55903664  0.05232684  0.91636794     0.01600
N808        N  0.90999868  0.04866940  0.54898700    -0.25280
N809        N  0.95299634  0.45374763  0.90810119    -0.25770
N810        N  0.94036794  0.04917814  0.58494332     0.01240
H811        H  0.84880839  0.08959977  0.53207034     0.07130
H812        H  0.52520390  0.09076983  0.65388127     0.07160
N813        N  0.58893287  0.05242725  0.95290237    -0.25820
N814        N  0.54802220  0.45213568  0.59062763    -0.25440
N815        N  0.91740574  0.05201384  0.94309491     0.01600
C816        C  0.60568469  0.39890042  0.89726041     0.43000
C817        C  0.88225840  0.41390091  0.55197844    -0.06690
N818        N  0.54478927  0.05100682  0.59176210    -0.25430
H819        H  0.53575400  0.41396890  0.65596313     0.07150
N820        N  0.56670405  0.42153128  0.88273264    -0.46660
H821        H  0.85296701  0.40642049  0.52821097     0.07130
C822        C  0.89313058  0.10482618  0.59966444     0.42830
C823        C  0.94512682  0.42200474  0.87411779    -0.06180
Co824      Co  0.91350321  0.00037504  0.99476230     0.73820
N825        N  0.93483020  0.41453883  0.61333707    -0.46370
C826        C  0.61093077  0.10254912  0.89804903     0.43100
N827        N  0.88536810  0.08435073  0.93556160    -0.46360
Co828      Co  0.99372151  0.00006860  0.58857462     0.73890
C829        C  0.54934173  0.08466256  0.62415334    -0.06690
C830        C  0.62150044  0.42058330  0.94209290    -0.06250
N831        N  0.95262303  0.05307798  0.91152590    -0.25780
N832        N  0.61862938  0.42532665  0.57148700    -0.46540
H833        H  0.65362716  0.08923021  0.96693672     0.07110
C834        C  0.87863170  0.08236191  0.55524095    -0.06670
Cl835      Cl  0.49998599  0.00161452  0.50036906    -0.49670
C836        C  0.89747832  0.39063198  0.59600974     0.42860
H837        H  0.96694606  0.09595679  0.85001225     0.07070
N838        N  0.93124651  0.08209589  0.61665203    -0.46380
C839        C  0.72222513  0.22651875  0.77993625    -0.02230
C840        C  0.72503028  0.27993441  0.77856315    -0.02230
C841        C  0.72219614  0.27903746  0.72249004    -0.02230
C842        C  0.71816788  0.22599581  0.72323012    -0.02230
C843        C  0.77741514  0.22325271  0.77640441    -0.02230
C844        C  0.77354415  0.22205056  0.71994289    -0.02230
C845        C  0.77761913  0.27548815  0.71853934    -0.02230
C846        C  0.78034743  0.27729526  0.77554131    -0.02230
C847        C  0.69772212  0.19342492  0.81493155    -0.05210
C848        C  0.69359548  0.14721485  0.80128766    -0.32640
C849        C  0.66398085  0.11745036  0.82700090     0.36610
C850        C  0.64136296  0.13267130  0.86938159    -0.05570
C851        C  0.65112534  0.17619450  0.88707834    -0.32540
C852        C  0.68013328  0.20614436  0.86107528     0.36520
H853        H  0.71041997  0.13510683  0.76846175     0.16890
O854        O  0.65801768  0.07348112  0.81095262    -0.60040
H855        H  0.63640072  0.18704111  0.92151505     0.16900
O856        O  0.69194156  0.24690181  0.88203825    -0.60130
H857        H  0.70516718  0.23952807  0.91423949     0.43900
H858        H  0.63229380  0.07518231  0.78673018     0.43850
C859        C  0.68960209  0.31336103  0.69716293    -0.05210
C860        C  0.70807158  0.35522389  0.68096786    -0.32640
C861        C  0.68133603  0.38410222  0.65136917     0.36610
C862        C  0.63376294  0.37352473  0.64149235    -0.05570
C863        C  0.61321281  0.33552615  0.66334483    -0.32540
C864        C  0.64025030  0.30617574  0.69196845     0.36520
H865        H  0.74403228  0.36489489  0.68955893     0.16890
O866        O  0.70159681  0.42314078  0.63350591    -0.60040
H867        H  0.57584127  0.32843396  0.65825976     0.16900
O868        O  0.61762988  0.27126053  0.71520621    -0.60130
H869        H  0.59127338  0.28527853  0.73397280     0.43900
H870        H  0.71964715  0.41323034  0.60445589     0.43850
C871        C  0.86346906  0.13573113  0.62864425    -0.05210
C872        C  0.81485236  0.12721003  0.63128882    -0.32640
C873        C  0.78577073  0.15224663  0.66258652     0.36610
C874        C  0.80377831  0.19124371  0.68693007    -0.05570
C875        C  0.85334859  0.19730666  0.68626337    -0.32540
C876        C  0.88304375  0.17033103  0.65727992     0.36520
H877        H  0.79995390  0.09796354  0.61268926     0.16890
O878        O  0.74303873  0.13342988  0.67511984    -0.60040
H879        H  0.86972400  0.22039191  0.71126223     0.16900
O880        O  0.93113483  0.17718438  0.65831997    -0.60130
H881        H  0.93732271  0.20123786  0.63397811     0.43900
H882        H  0.74997431  0.10358061  0.69035420     0.43850
C883        C  0.68076828  0.20121888  0.69200957    -0.05210
C884        C  0.64131738  0.18013119  0.71368711    -0.32640
C885        C  0.61131156  0.15116648  0.68777268     0.36610
C886        C  0.61901449  0.14375391  0.63802984    -0.05570
C887        C  0.65414148  0.16937701  0.61476174    -0.32540
C888        C  0.68448698  0.19826835  0.64101723     0.36520
H889        H  0.63229755  0.18692676  0.75084884     0.16890
O890        O  0.57609516  0.12882514  0.71237661    -0.60040
H891        H  0.65947384  0.16566803  0.57614777     0.16900
O892        O  0.72011986  0.22037682  0.61703829    -0.60130
H893        H  0.73569122  0.19780224  0.59533677     0.43900
H894        H  0.54994843  0.15133730  0.71557336     0.43850
C895        C  0.81089583  0.31014240  0.80658131    -0.05210
C896        C  0.83465117  0.34714889  0.78491742    -0.32640
C897        C  0.86566627  0.37520709  0.81049035     0.36610
C898        C  0.87088548  0.36928772  0.86030345    -0.05570
C899        C  0.84134233  0.33827590  0.88390478    -0.32540
C900        C  0.80995092  0.31029796  0.85776045     0.36520
H901        H  0.82523687  0.35818504  0.74927132     0.16890
O902        O  0.88743094  0.41071526  0.78704366    -0.60040
H903        H  0.84066891  0.33761209  0.92305381     0.16900
O904        O  0.77233324  0.29151916  0.88182178    -0.60130
H905        H  0.78325654  0.28273724  0.91455418     0.43900
H906        H  0.86507714  0.43677667  0.78992738     0.43690
C907        C  0.80697202  0.18991294  0.80849408    -0.05210
C908        C  0.80691020  0.19483646  0.85905046    -0.32640
C909        C  0.83762826  0.16972325  0.88884097     0.36610
C910        C  0.86946807  0.13826457  0.86814020    -0.05570
C911        C  0.86636358  0.12954305  0.81882676    -0.32540
C912        C  0.83244577  0.15147705  0.79062519     0.36520
H913        H  0.78046066  0.21521621  0.87608361     0.16890
O914        O  0.83521278  0.17525948  0.93799682    -0.60040
H915        H  0.88594784  0.10121463  0.80314787     0.16900
O916        O  0.81734533  0.12758399  0.75145691    -0.60130
H917        H  0.79436830  0.10496798  0.76426052     0.43900
H918        H  0.85576140  0.20186936  0.94513650     0.43850
C919        C  0.69238604  0.31344502  0.80594961    -0.05210
C920        C  0.64579380  0.30023805  0.81808088    -0.32640
C921        C  0.61689273  0.32777412  0.84760094     0.36610
C922        C  0.63413387  0.36966500  0.86490120    -0.05570
C923        C  0.67797265  0.38541156  0.84835350    -0.32540
C924        C  0.70563049  0.35885644  0.81689108     0.36520
H925        H  0.63245248  0.26734982  0.80673260     0.16890
O926        O  0.57240837  0.31299751  0.86020294    -0.60040
H927        H  0.68991790  0.41936188  0.85813648     0.16900
O928        O  0.74374800  0.37892627  0.79513502    -0.60130
H929        H  0.73035426  0.40020135  0.77098288     0.43900
H930        H  0.57717611  0.29313820  0.88870888     0.43850
C931        C  0.87149632  0.35415339  0.62256032    -0.05210
C932        C  0.82714729  0.33966651  0.60599682    -0.32640
C933        C  0.79754624  0.31186393  0.63443638     0.36610
C934        C  0.81191577  0.29806831  0.68113194    -0.05570
C935        C  0.86013578  0.30536200  0.69261403    -0.32540
C936        C  0.88895757  0.33469837  0.66528037     0.36520
H937        H  0.81419007  0.35115970  0.57141310     0.16890
O938        O  0.75506521  0.29780083  0.61587428    -0.60040
H939        H  0.87460138  0.29224265  0.72585035     0.16900
O940        O  0.93372293  0.34466242  0.68132872    -0.60130
H941        H  0.92936958  0.36909303  0.70586404     0.43900
H942        H  0.74198603  0.32288245  0.59594007     0.43850
C943        C  0.90093093  0.90009973  0.38889101     0.42710
N944        N  0.91833363  0.95215934  0.44014297     0.01600
C945        C  0.62261193  0.58363083  0.44487538    -0.06270
H946        H  0.65275103  0.91364210  0.46334051     0.07090
C947        C  0.55718095  0.92066812  0.12426310    -0.06630
Co948      Co  0.50571362  0.00319604  0.41200755     0.74180
N949        N  0.58946747  0.95350628  0.45111993    -0.25800
Co950      Co  0.58660339  0.00313996  0.00622182     0.74070
C951        C  0.60398114  0.90319156  0.11149532     0.42810
N952        N  0.94255404  0.94864420  0.08287241     0.01220
N953        N  0.58383444  0.95355093  0.05978137     0.01320
N954        N  0.57156850  0.58132294  0.38195350    -0.46650
H955        H  0.96665653  0.91630682  0.34221749     0.07080
N956        N  0.55798527  0.95320835  0.41587081     0.01610
N957        N  0.58035009  0.55292830  0.06068528     0.01350
C958        C  0.59281739  0.60840703  0.11030759     0.42950
N959        N  0.91208240  0.94912830  0.04689964    -0.25260
C960        C  0.94511000  0.58771057  0.38099790    -0.06180
N961        N  0.88622351  0.92075410  0.42989112    -0.46370
N962        N  0.61015537  0.58665760  0.07064353    -0.46590
C963        C  0.90072129  0.60885331  0.39736485     0.42730
N964        N  0.55903662  0.55232684  0.41636794     0.01600
N965        N  0.90999867  0.54866945  0.04898698    -0.25280
N966        N  0.95299633  0.95374760  0.40810120    -0.25770
N967        N  0.94036793  0.54917820  0.08494330     0.01240
H968        H  0.84880837  0.58959980  0.03207031     0.07130
H969        H  0.52520392  0.59076979  0.15388129     0.07160
N970        N  0.58893286  0.55242725  0.45290237    -0.25820
N971        N  0.54802219  0.95213575  0.09062770    -0.25440
N972        N  0.91740572  0.55201383  0.44309496     0.01600
C973        C  0.60568465  0.89890037  0.39726047     0.43000
C974        C  0.88225833  0.91390096  0.05197841    -0.06690
N975        N  0.54478929  0.55100678  0.09176211    -0.25430
H976        H  0.53575399  0.91396903  0.15596323     0.07150
N977        N  0.56670401  0.92153122  0.38273269    -0.46660
H978        H  0.85296693  0.90642056  0.02821094     0.07130
C979        C  0.89313056  0.60482623  0.09966441     0.42830
C980        C  0.94512683  0.92200470  0.37411782    -0.06180
Co981      Co  0.91350322  0.50037502  0.49476235     0.73820
N982        N  0.93483012  0.91453887  0.11333705    -0.46370
C983        C  0.61093075  0.60254915  0.39804905     0.43100
N984        N  0.88536809  0.58435072  0.43556166    -0.46360
Co985      Co  0.99372150  0.50006866  0.08857461     0.73890
C986        C  0.54934175  0.58466252  0.12415336    -0.06690
C987        C  0.62150041  0.92058328  0.44209294    -0.06250
N988        N  0.95262301  0.55307797  0.41152595    -0.25780
N989        N  0.61862940  0.92532674  0.07148713    -0.46540
H990        H  0.65362715  0.58923021  0.46693673     0.07110
C991        C  0.87863168  0.58236195  0.05524092    -0.06670
Cl992      Cl  0.49998599  0.50161452  0.00036905    -0.49670
C993        C  0.89747822  0.89063205  0.09600972     0.42860
H994        H  0.96694604  0.59595679  0.35001231     0.07070
N995        N  0.93124649  0.58209595  0.11665200    -0.46380
C996        C  0.72222513  0.72651876  0.27993629    -0.02230
C997        C  0.72503027  0.77993442  0.27856319    -0.02230
C998        C  0.72219610  0.77903746  0.22249009    -0.02230
C999        C  0.71816785  0.72599581  0.22323017    -0.02230
C1000       C  0.77741513  0.72325271  0.27640443    -0.02230
C1001       C  0.77354413  0.72205057  0.21994291    -0.02230
C1002       C  0.77761908  0.77548816  0.21853935    -0.02230
C1003       C  0.78034742  0.77729526  0.27554133    -0.02230
C1004       C  0.69772212  0.69342494  0.31493160    -0.05210
C1005       C  0.69359554  0.64721485  0.30128776    -0.32640
C1006       C  0.66398091  0.61745036  0.32700099     0.36610
C1007       C  0.64136294  0.63267132  0.36938162    -0.05570
C1008       C  0.65112526  0.67619455  0.38707835    -0.32540
C1009       C  0.68013321  0.70614441  0.36107529     0.36520
H1010       H  0.71042008  0.63510682  0.26846187     0.16890
O1011       O  0.65801781  0.57348110  0.31095275    -0.60040
H1012       H  0.63640058  0.68704118  0.42151502     0.16900
O1013       O  0.69194146  0.74690187  0.38203825    -0.60130
H1014       H  0.70516708  0.73952815  0.41423949     0.43900
H1015       H  0.63229395  0.57518224  0.28673028     0.43850
C1016       C  0.68960204  0.81336105  0.19716301    -0.05210
C1017       C  0.70807151  0.85522399  0.18096811    -0.32640
C1018       C  0.68133598  0.88410237  0.15136947     0.36610
C1019       C  0.63376293  0.87352483  0.14149250    -0.05570
C1020       C  0.61321280  0.83552617  0.16334483    -0.32540
C1021       C  0.64025027  0.80617572  0.19196841     0.36520
H1022       H  0.74403220  0.86489498  0.18955926     0.16890
O1023       O  0.70159672  0.92314102  0.13350639    -0.60040
H1024       H  0.57584128  0.82843396  0.15825965     0.16900
O1025       O  0.61762984  0.77126044  0.21520604    -0.60130
H1026       H  0.59127333  0.78527838  0.23397265     0.43900
H1027       H  0.71964716  0.91323070  0.10445639     0.43850
C1028       C  0.86346902  0.63573118  0.12864422    -0.05210
C1029       C  0.81485233  0.62721005  0.13128881    -0.32640
C1030       C  0.78577070  0.65224664  0.16258652     0.36610
C1031       C  0.80377827  0.69124373  0.18693006    -0.05570
C1032       C  0.85334855  0.69730670  0.18626334    -0.32540
C1033       C  0.88304371  0.67033109  0.15727988     0.36520
H1034       H  0.79995388  0.59796356  0.11268927     0.16890
O1035       O  0.74303872  0.63342987  0.17511987    -0.60040
H1036       H  0.86972396  0.72039194  0.21126221     0.16900
O1037       O  0.93113479  0.67718446  0.15831991    -0.60130
H1038       H  0.93732266  0.70123794  0.13397805     0.43900
H1039       H  0.74997434  0.60358062  0.19035425     0.43850
C1040       C  0.68076828  0.70121885  0.19200962    -0.05210
C1041       C  0.64131741  0.68013110  0.21368718    -0.32640
C1042       C  0.61131162  0.65116638  0.18777274     0.36610
C1043       C  0.61901453  0.64375384  0.13802989    -0.05570
C1044       C  0.65414149  0.66937699  0.11476179    -0.32540
C1045       C  0.68448696  0.69826835  0.14101728     0.36520
H1046       H  0.63229757  0.68692666  0.25084890     0.16890
O1047       O  0.57609526  0.62882497  0.21237668    -0.60040
H1048       H  0.65947383  0.66566803  0.07614782     0.16900
O1049       O  0.72011979  0.72037689  0.11703834    -0.60130
H1050       H  0.73569120  0.69780234  0.09533682     0.43900
H1051       H  0.54994851  0.65133711  0.21557349     0.43850
C1052       C  0.81089585  0.81014237  0.30658132    -0.05210
C1053       C  0.83465121  0.84714886  0.28491744    -0.32640
C1054       C  0.86566631  0.87520704  0.31049038     0.36610
C1055       C  0.87088552  0.86928766  0.36030348    -0.05570
C1056       C  0.84134236  0.83827584  0.38390480    -0.32540
C1057       C  0.80995095  0.81029790  0.35776047     0.36520
H1058       H  0.82523689  0.85818502  0.24927136     0.16890
O1059       O  0.88743099  0.91071521  0.28704369    -0.60040
H1060       H  0.84066895  0.83761202  0.42305383     0.16900
O1061       O  0.77233328  0.79151909  0.38182179    -0.60130
H1062       H  0.78325658  0.78273716  0.41455418     0.43900
H1063       H  0.86507720  0.93677662  0.28992742     0.43690
C1064       C  0.80697202  0.68991294  0.30849410    -0.05210
C1065       C  0.80691015  0.69483642  0.35905048    -0.32640
C1066       C  0.83762820  0.66972321  0.38884101     0.36610
C1067       C  0.86946805  0.63826457  0.36814025    -0.05570
C1068       C  0.86636362  0.62954310  0.31882680    -0.32540
C1069       C  0.83244583  0.65147709  0.29062521     0.36520
H1070       H  0.78046056  0.71521613  0.37608363     0.16890
O1071       O  0.83521265  0.67525941  0.43799686    -0.60040
H1072       H  0.88594792  0.60121471  0.30314790     0.16900
O1073       O  0.81734547  0.62758405  0.25145689    -0.60130
H1074       H  0.79436845  0.60496800  0.26426045     0.43900
H1075       H  0.85576126  0.70186929  0.44513658     0.43850
C1076       C  0.69238603  0.81344502  0.30594965    -0.05210
C1077       C  0.64579375  0.80023808  0.31808081    -0.32640
C1078       C  0.61689267  0.82777414  0.34760087     0.36610
C1079       C  0.63413384  0.86966496  0.36490126    -0.05570
C1080       C  0.67797267  0.88541149  0.34835368    -0.32540
C1081       C  0.70563053  0.85885641  0.31689125     0.36520
H1082       H  0.63245243  0.76734988  0.30673246     0.16890
O1083       O  0.57240827  0.81299756  0.36020276    -0.60040
H1084       H  0.68991795  0.91936178  0.35813675     0.16900
O1085       O  0.74374808  0.87892624  0.29513528    -0.60130
H1086       H  0.73035439  0.90020139  0.27098318     0.43900
H1087       H  0.57717593  0.79313820  0.38870867     0.43850
C1088       C  0.87149619  0.85415348  0.12256031    -0.05210
C1089       C  0.82714712  0.83966667  0.10599686    -0.32640
C1090       C  0.79754608  0.81186407  0.13443642     0.36610
C1091       C  0.81191568  0.79806836  0.18113194    -0.05570
C1092       C  0.86013571  0.80536202  0.19261397    -0.32540
C1093       C  0.88895748  0.83469840  0.16528031     0.36520
H1094       H  0.81418986  0.85115992  0.07141318     0.16890
O1095       O  0.75506503  0.79780100  0.11587435    -0.60040
H1096       H  0.87460134  0.79224265  0.22585027     0.16900
O1097       O  0.93372287  0.84466240  0.18132861    -0.60130
H1098       H  0.92936957  0.86909298  0.20586398     0.43900
H1099       H  0.74198582  0.82288265  0.09594021     0.43850
C1100       C  0.90093095  0.90009973  0.88889102     0.42710
N1101       N  0.91833364  0.95215934  0.94014298     0.01600
C1102       C  0.62261197  0.58363083  0.94487542    -0.06270
H1103       H  0.65275103  0.91364210  0.96334051     0.07090
C1104       C  0.55718095  0.92066811  0.62426309    -0.06630
Co1105     Co  0.50571362  0.00319606  0.91200758     0.74180
N1106       N  0.58946747  0.95350629  0.95111994    -0.25800
Co1107     Co  0.58660338  0.00313996  0.50622181     0.74070
C1108       C  0.60398114  0.90319156  0.61149532     0.42810
N1109       N  0.94255404  0.94864416  0.58287239     0.01220
N1110       N  0.58383444  0.95355092  0.55978136     0.01320
N1111       N  0.57156855  0.58132296  0.88195353    -0.46650
H1112       H  0.96665655  0.91630683  0.84221750     0.07080
N1113       N  0.55798527  0.95320836  0.91587083     0.01610
N1114       N  0.58035010  0.55292830  0.56068527     0.01350
C1115       C  0.59281742  0.60840701  0.61030760     0.42950
N1116       N  0.91208239  0.94912828  0.54689963    -0.25260
C1117       C  0.94511006  0.58771061  0.88099785    -0.06180
N1118       N  0.88622353  0.92075410  0.92989113    -0.46370
N1119       N  0.61015538  0.58665760  0.57064353    -0.46590
C1120       C  0.90072137  0.60885337  0.89736481     0.42730
N1121       N  0.55903667  0.55232685  0.91636795     0.01600
N1122       N  0.90999868  0.54866940  0.54898706    -0.25280
N1123       N  0.95299635  0.95374761  0.90810121    -0.25770
N1124       N  0.94036795  0.54917815  0.58494337     0.01240
H1125       H  0.84880837  0.58959975  0.53207040     0.07130
H1126       H  0.52520397  0.59076975  0.65388132     0.07160
N1127       N  0.58893289  0.55242724  0.95290239    -0.25820
N1128       N  0.54802219  0.95213573  0.59062768    -0.25440
N1129       N  0.91740576  0.55201387  0.94309489     0.01600
C1130       C  0.60568464  0.89890038  0.89726048     0.43000
C1131       C  0.88225832  0.91390094  0.55197838    -0.06690
N1132       N  0.54478932  0.55100676  0.59176212    -0.25430
H1133       H  0.53575398  0.91396902  0.65596322     0.07150
N1134       N  0.56670400  0.92153124  0.88273271    -0.46660
H1135       H  0.85296692  0.90642054  0.52821092     0.07130
C1136       C  0.89313057  0.60482618  0.59966449     0.42830
C1137       C  0.94512685  0.92200470  0.87411783    -0.06180
Co1138     Co  0.91350321  0.50037506  0.99476228     0.73820
N1139       N  0.93483011  0.91453883  0.61333702    -0.46370
C1140       C  0.61093079  0.60254917  0.89804910     0.43100
N1141       N  0.88536815  0.58435078  0.93556161    -0.46360
Co1142     Co  0.99372154  0.50006864  0.58857466     0.73890
C1143       C  0.54934179  0.58466249  0.62415338    -0.06690
C1144       C  0.62150041  0.92058329  0.94209295    -0.06250
N1145       N  0.95262306  0.55307800  0.91152589    -0.25780
N1146       N  0.61862940  0.92532674  0.57148712    -0.46540
H1147       H  0.65362717  0.58923021  0.96693678     0.07110
C1148       C  0.87863169  0.58236190  0.55524100    -0.06670
Cl1149     Cl  0.49998599  0.50161451  0.50036907    -0.49670
C1150       C  0.89747821  0.89063201  0.59600969     0.42860
H1151       H  0.96694612  0.59595683  0.85001227     0.07070
N1152       N  0.93124651  0.58209591  0.61665207    -0.46380
C1153       C  0.72222514  0.72651878  0.77993632    -0.02230
C1154       C  0.72503028  0.77993444  0.77856320    -0.02230
C1155       C  0.72219609  0.77903747  0.72249009    -0.02230
C1156       C  0.71816785  0.72599582  0.72323020    -0.02230
C1157       C  0.77741514  0.72325274  0.77640444    -0.02230
C1158       C  0.77354412  0.72205058  0.71994292    -0.02230
C1159       C  0.77761908  0.77548817  0.71853935    -0.02230
C1160       C  0.78034743  0.77729528  0.77554132    -0.02230
C1161       C  0.69772214  0.69342497  0.81493164    -0.05210
C1162       C  0.69359560  0.64721488  0.80128782    -0.32640
C1163       C  0.66398099  0.61745037  0.82700106     0.36610
C1164       C  0.64136298  0.63267135  0.86938168    -0.05570
C1165       C  0.65112527  0.67619459  0.88707838    -0.32540
C1166       C  0.68013320  0.70614446  0.86107531     0.36520
H1167       H  0.71042015  0.63510684  0.76846195     0.16890
O1168       O  0.65801792  0.57348110  0.81095285    -0.60040
H1169       H  0.63640056  0.68704123  0.92151504     0.16900
O1170       O  0.69194141  0.74690193  0.88203826    -0.60130
H1171       H  0.70516707  0.73952823  0.91423949     0.43900
H1172       H  0.63229407  0.57518221  0.78673037     0.43850
C1173       C  0.68960203  0.81336105  0.69716302    -0.05210
C1174       C  0.70807149  0.85522401  0.68096816    -0.32640
C1175       C  0.68133596  0.88410239  0.65136952     0.36610
C1176       C  0.63376293  0.87352484  0.64149250    -0.05570
C1177       C  0.61321280  0.83552615  0.66334479    -0.32540
C1178       C  0.64025027  0.80617570  0.69196837     0.36520
H1179       H  0.74403217  0.86489501  0.68955932     0.16890
O1180       O  0.70159670  0.92314106  0.63350647    -0.60040
H1181       H  0.57584129  0.82843392  0.65825958     0.16900
O1182       O  0.61762984  0.77126039  0.71520597    -0.60130
H1183       H  0.59127332  0.78527832  0.73397258     0.43900
H1184       H  0.71964716  0.91323077  0.60445647     0.43850
C1185       C  0.86346904  0.63573114  0.62864429    -0.05210
C1186       C  0.81485234  0.62721003  0.63128886    -0.32640
C1187       C  0.78577071  0.65224663  0.66258655     0.36610
C1188       C  0.80377828  0.69124372  0.68693009    -0.05570
C1189       C  0.85334856  0.69730668  0.68626339    -0.32540
C1190       C  0.88304373  0.67033104  0.65727996     0.36520
H1191       H  0.79995388  0.59796354  0.61268932     0.16890
O1192       O  0.74303872  0.63342987  0.67511989    -0.60040
H1193       H  0.86972397  0.72039192  0.71126227     0.16900
O1194       O  0.93113480  0.67718440  0.65832001    -0.60130
H1195       H  0.93732269  0.70123788  0.63397815     0.43900
H1196       H  0.74997432  0.60358062  0.69035429     0.43850
C1197       C  0.68076829  0.70121884  0.69200965    -0.05210
C1198       C  0.64131744  0.68013106  0.71368721    -0.32640
C1199       C  0.61131166  0.65116632  0.68777277     0.36610
C1200       C  0.61901456  0.64375381  0.63802991    -0.05570
C1201       C  0.65414150  0.66937698  0.61476181    -0.32540
C1202       C  0.68448696  0.69826835  0.64101731     0.36520
H1203       H  0.63229760  0.68692660  0.75084894     0.16890
O1204       O  0.57609533  0.62882488  0.71237671    -0.60040
H1205       H  0.65947384  0.66566804  0.57614784     0.16900
O1206       O  0.72011979  0.72037691  0.61703837    -0.60130
H1207       H  0.73569121  0.69780236  0.59533686     0.43900
H1208       H  0.54994857  0.65133701  0.71557356     0.43850
C1209       C  0.81089587  0.81014239  0.80658131    -0.05210
C1210       C  0.83465126  0.84714885  0.78491743    -0.32640
C1211       C  0.86566636  0.87520703  0.81049037     0.36610
C1212       C  0.87088554  0.86928766  0.86030347    -0.05570
C1213       C  0.84134236  0.83827586  0.88390480    -0.32540
C1214       C  0.80995095  0.81029794  0.85776046     0.36520
H1215       H  0.82523696  0.85818502  0.74927134     0.16890
O1216       O  0.88743107  0.91071518  0.78704368    -0.60040
H1217       H  0.84066893  0.83761206  0.92305383     0.16900
O1218       O  0.77233325  0.79151916  0.88182177    -0.60130
H1219       H  0.78325651  0.78273725  0.91455418     0.43900
H1220       H  0.86507729  0.93677661  0.78992738     0.43690
C1221       C  0.80697204  0.68991298  0.80849411    -0.05210
C1222       C  0.80691022  0.69483649  0.85905049    -0.32640
C1223       C  0.83762830  0.66972329  0.88884100     0.36610
C1224       C  0.86946812  0.63826464  0.86814022    -0.05570
C1225       C  0.86636364  0.62954313  0.81882678    -0.32540
C1226       C  0.83244581  0.65147711  0.79062522     0.36520
H1227       H  0.78046065  0.71521620  0.87608365     0.16890
O1228       O  0.83521280  0.67525951  0.93799685    -0.60040
H1229       H  0.88594792  0.60121472  0.80314788     0.16900
O1230       O  0.81734538  0.62758403  0.75145694    -0.60130
H1231       H  0.79436840  0.60496798  0.76426057     0.43900
H1232       H  0.85576142  0.70186940  0.94513653     0.43850
C1233       C  0.69238604  0.81344505  0.80594965    -0.05210
C1234       C  0.64579374  0.80023813  0.81808076    -0.32640
C1235       C  0.61689264  0.82777419  0.84760081     0.36610
C1236       C  0.63413383  0.86966498  0.86490126    -0.05570
C1237       C  0.67797269  0.88541149  0.84835374    -0.32540
C1238       C  0.70563055  0.85885642  0.81689131     0.36520
H1239       H  0.63245241  0.76734993  0.80673239     0.16890
O1240       O  0.57240822  0.81299762  0.86020264    -0.60040
H1241       H  0.68991799  0.91936177  0.85813685     0.16900
O1242       O  0.74374814  0.87892625  0.79513539    -0.60130
H1243       H  0.73035447  0.90020139  0.77098326     0.43900
H1244       H  0.57717583  0.79313823  0.88870854     0.43850
C1245       C  0.87149617  0.85415345  0.62256028    -0.05210
C1246       C  0.82714708  0.83966668  0.60599685    -0.32640
C1247       C  0.79754605  0.81186409  0.63443642     0.36610
C1248       C  0.81191566  0.79806836  0.68113192    -0.05570
C1249       C  0.86013570  0.80536200  0.69261394    -0.32540
C1250       C  0.88895747  0.83469836  0.66528027     0.36520
H1251       H  0.81418981  0.85115994  0.57141318     0.16890
O1252       O  0.75506498  0.79780104  0.61587436    -0.60040
H1253       H  0.87460133  0.79224262  0.72585023     0.16900
O1254       O  0.93372288  0.84466233  0.68132854    -0.60130
H1255       H  0.92936960  0.86909290  0.70586393     0.43900
H1256       H  0.74198578  0.82288270  0.59594023     0.43850
loop_ 
_geom_bond_atom_site_label_1 
_geom_bond_atom_site_label_2 
_geom_bond_distance 
_geom_bond_site_symmetry_2 
_ccdc_geom_bond_type 
C1           N19   1.348       .  A
C1           C38   1.460       .  S
C1          C113   1.470       .  S
N2           N19   1.322       .  A
N2           N24   1.318       .  A
N2         Co353   2.069       .  S
C3           N28   1.337       .  A
C3           C41   1.451       .  S
C3           H48   1.082       .  S
H4           C45   1.082       .  S
C5           N29   1.338       .  A
C5            C9   1.456       .  S
C5           H34   1.082       .  S
Co6          N14   2.080       .  S
Co6         N652   2.079   1_455  S
Co6         N988   2.091   1_455  S
Co6         N336   2.086       .  S
Co6        Cl521   2.451   1_455  S
N7           C45   1.342       .  A
N7           N14   1.323       .  A
N7         Co165   2.104       .  S
Co8          N11   2.081       .  S
Co8         N164   2.104   1_554  S
Co8         N499   2.069   1_554  S
Co8         N329   2.100       .  S
Co8        Cl364   2.449   1_455  S
C9           N47   1.349       .  A
C9           C77   1.470       .  S
N10          N17   1.319       .  A
N10          N40   1.327       .  A
N10        Co357   2.093       .  S
N11          N29   1.320       .  A
N11          N47   1.325       .  A
N12          C41   1.350       .  A
N12          N22   1.326       .  A
H13          C38   1.082       .  S
N14          N35   1.324       .  A
N15          N33   1.319       .  A
N15          N20   1.327       .  A
N15        Co322   2.100       .  S
C16          N20   1.356       .  A
C16          C44   1.460       .  S
C16         C101   1.486       .  S
N17          C32   1.339       .  A
N17        Co510   2.087   1_554  S
C18          N46   1.340       .  A
C18          C21   1.465       .  S
C18          H52   1.082       .  S
C21          N42   1.350       .  A
C21         C125   1.478       .  S
N22          N28   1.320       .  A
N22        Co320   2.086       .  S
N23          C49   1.335       .  A
N23          N25   1.316       .  A
N23        Co196   2.061   1_554  S
N24          C38   1.340       .  A
N24        Co634   2.079       .  S
N25          N53   1.325       .  A
N25         Co43   2.083       .  S
H26          C49   1.082       .  S
H27          C44   1.080       .  S
N28        Co479   2.069       .  S
N29        Co985   2.077   1_455  S
N30          N42   1.326       .  A
N30          N46   1.320       .  A
N30         Co39   2.088       .  S
C31          N35   1.347       .  A
C31          C45   1.464       .  S
C31         C137   1.471       .  S
C32          C51   1.465       .  S
C32          H36   1.081       .  S
N33          C44   1.337       .  A
N33        Co671   2.077   1_455  S
C37          N53   1.351       .  A
C37          C49   1.453       .  S
C37          C86   1.466       .  S
Co39        N316   2.069   1_545  S
Co39        N488   2.087   1_545  S
Co39        N180   2.061       .  S
Co39       Cl835   2.445       .  S
N40          C51   1.354       .  A
C41          C65   1.464       .  S
Co43        N324   2.093   1_545  S
Co43        N971   2.077   1_545  S
Co43        N661   2.077       .  S
Co43       Cl678   2.448       .  S
N46        Co948   2.091       .  S
Cl50       Co477   2.451   1_654  S
Cl50       Co322   2.449   1_655  S
Cl50       Co824   2.445   1_554  S
Cl50       Co671   2.448       .  S
C51         C146   1.490       .  S
C54          C55   1.567       .  S
C54          C57   1.575       .  S
C54          C58   1.562       .  S
C54          C62   1.535       .  S
C55          C56   1.555       .  S
C55          C61   1.564       .  S
C55         C134   1.540       .  S
C56          C57   1.558       .  S
C56          C60   1.569       .  S
C56          C74   1.535       .  S
C57          C59   1.568       .  S
C57          C98   1.547       .  S
C58          C59   1.568       .  S
C58          C61   1.585       .  S
C58         C122   1.565       .  S
C59          C60   1.570       .  S
C59          C89   1.536       .  S
C60          C61   1.581       .  S
C60         C149   1.563       .  S
C61         C110   1.552       .  S
C62          C63   1.409       .  A
C62          C67   1.416       .  A
C63          H68   1.081       .  S
C63          C64   1.402       .  A
C64          C65   1.404       .  A
C64          O69   1.371       .  S
C65          C66   1.392       .  A
C66          H70   1.084       .  S
C66          C67   1.399       .  A
C67          O71   1.367       .  S
O69          H73   0.992       .  S
O71          H72   0.993       .  S
C74          C75   1.407       .  A
C74          C79   1.416       .  A
C75          H80   1.081       .  S
C75          C76   1.402       .  A
C76          C77   1.405       .  A
C76          O81   1.371       .  S
C77          C78   1.394       .  A
C78          H82   1.084       .  S
C78          C79   1.399       .  A
C79          O83   1.367       .  S
O81          H85   0.992       .  S
O83          H84   0.992       .  S
C86          C87   1.395       .  A
C86          C91   1.400       .  A
C87          H92   1.084       .  S
C87          C88   1.396       .  A
C88          C89   1.420       .  A
C88          O93   1.369       .  S
C89          C90   1.409       .  A
C90          H94   1.072       .  S
C90          C91   1.399       .  A
C91          O95   1.372       .  S
O93          H97   0.992       .  S
O95          H96   0.992       .  S
C98          C99   1.406       .  A
C98         C103   1.417       .  A
C99         H104   1.076       .  S
C99         C100   1.398       .  A
C100        C101   1.409       .  A
C100        O105   1.370       .  S
C101        C102   1.399       .  A
C102        H106   1.084       .  S
C102        C103   1.407       .  A
C103        O107   1.367       .  S
O105        H109   0.992       .  S
O107        H108   0.992       .  S
C110        C111   1.409       .  A
C110        C115   1.417       .  A
C111        H116   1.074       .  S
C111        C112   1.395       .  A
C112        C113   1.399       .  A
C112        O117   1.372       .  S
C113        C114   1.395       .  A
C114        H118   1.084       .  S
C114        C115   1.408       .  A
C115        O119   1.367       .  S
O117        H121   0.992       .  S
O119        H120   0.993       .  S
C122        C123   1.407       .  A
C122        C127   1.421       .  A
C123        H128   1.062       .  S
C123        C124   1.408       .  A
C124        C125   1.404       .  A
C124        O129   1.371       .  S
C125        C126   1.391       .  A
C126        H130   1.084       .  S
C126        C127   1.395       .  A
C127        O131   1.359       .  S
O129        H133   0.992       .  S
O131        H132   0.992       .  S
C134        C135   1.409       .  A
C134        C139   1.414       .  A
C135        H140   1.081       .  S
C135        C136   1.403       .  A
C136        C137   1.404       .  A
C136        O141   1.371       .  S
C137        C138   1.396       .  A
C138        H142   1.084       .  S
C138        C139   1.399       .  A
C139        O143   1.364       .  S
O141        H145   0.992       .  S
O143        H144   0.992       .  S
C146        C147   1.400       .  A
C146        C151   1.406       .  A
C147        H152   1.081       .  S
C147        C148   1.407       .  A
C148        C149   1.417       .  A
C148        O153   1.369       .  S
C149        C150   1.414       .  A
C150        H154   1.080       .  S
C150        C151   1.404       .  A
C151        O155   1.372       .  S
O153        H157   0.992       .  S
O155        H156   0.992       .  S
C158        N176   1.348       .  A
C158        C195   1.460       .  S
C158        C270   1.470       .  S
N159        N176   1.322       .  A
N159        N181   1.318       .  A
N159       Co510   2.069       .  S
C160        N185   1.337       .  A
C160        C198   1.451       .  S
C160        H205   1.082       .  S
H161        C202   1.082       .  S
C162        N186   1.338       .  A
C162        C166   1.456       .  S
C162        H191   1.082       .  S
Co163       N809   2.079   1_455  S
Co163       N171   2.080       .  S
Co163      N1145   2.091   1_455  S
Co163       N493   2.086       .  S
Co163      Cl364   2.451   1_456  S
N164        C202   1.342       .  A
N164        N171   1.323       .  A
Co165       N168   2.081       .  S
Co165       N342   2.069       .  S
Co165       N486   2.100       .  S
Co165      Cl521   2.449   1_455  S
C166        N204   1.349       .  A
C166        C234   1.470       .  S
N167        N174   1.319       .  A
N167        N197   1.327       .  A
N167       Co514   2.093       .  S
N168        N186   1.320       .  A
N168        N204   1.325       .  A
N169        C198   1.350       .  A
N169        N179   1.326       .  A
H170        C195   1.082       .  S
N171        N192   1.324       .  A
N172        N190   1.319       .  A
N172        N177   1.327       .  A
N172       Co479   2.100       .  S
C173        N177   1.356       .  A
C173        C201   1.460       .  S
C173        C258   1.486       .  S
N174        C189   1.339       .  A
N174       Co353   2.087       .  S
C175        N203   1.340       .  A
C175        C178   1.465       .  S
C175        H209   1.082       .  S
C178        N199   1.350       .  A
C178        C282   1.478       .  S
N179        N185   1.320       .  A
N179       Co477   2.086       .  S
N180        C206   1.335       .  A
N180        N182   1.316       .  A
N181        C195   1.340       .  A
N181       Co791   2.079       .  S
N182        N210   1.325       .  A
N182       Co200   2.083       .  S
H183        C206   1.082       .  S
H184        C201   1.080       .  S
N185       Co322   2.069   1_556  S
N186      Co1142   2.077   1_455  S
N187        N199   1.326       .  A
N187        N203   1.320       .  A
N187       Co196   2.088       .  S
C188        N192   1.347       .  A
C188        C202   1.464       .  S
C188        C294   1.471       .  S
C189        C208   1.465       .  S
C189        H193   1.081       .  S
N190        C201   1.337       .  A
N190       Co828   2.077   1_455  S
C194        N210   1.351       .  A
C194        C206   1.453       .  S
C194        C243   1.466       .  S
Co196       N473   2.069   1_545  S
Co196       N331   2.087   1_546  S
Co196      Cl678   2.445   1_556  S
N197        C208   1.354       .  A
C198        C222   1.464       .  S
Co200       N481   2.093   1_545  S
Co200      N1128   2.077   1_545  S
Co200       N818   2.077       .  S
Co200      Cl835   2.448       .  S
N203      Co1105   2.091       .  S
Cl207      Co320   2.451   1_655  S
Cl207      Co479   2.449   1_655  S
Cl207      Co667   2.445       .  S
Cl207      Co828   2.448       .  S
C208        C303   1.490       .  S
C211        C212   1.567       .  S
C211        C214   1.575       .  S
C211        C215   1.562       .  S
C211        C219   1.535       .  S
C212        C213   1.555       .  S
C212        C218   1.564       .  S
C212        C291   1.540       .  S
C213        C214   1.558       .  S
C213        C217   1.569       .  S
C213        C231   1.535       .  S
C214        C216   1.568       .  S
C214        C255   1.547       .  S
C215        C216   1.568       .  S
C215        C218   1.585       .  S
C215        C279   1.565       .  S
C216        C217   1.570       .  S
C216        C246   1.536       .  S
C217        C218   1.581       .  S
C217        C306   1.563       .  S
C218        C267   1.552       .  S
C219        C220   1.409       .  A
C219        C224   1.416       .  A
C220        H225   1.081       .  S
C220        C221   1.402       .  A
C221        C222   1.404       .  A
C221        O226   1.371       .  S
C222        C223   1.392       .  A
C223        H227   1.084       .  S
C223        C224   1.399       .  A
C224        O228   1.367       .  S
O226        H230   0.992       .  S
O228        H229   0.993       .  S
C231        C232   1.407       .  A
C231        C236   1.416       .  A
C232        H237   1.081       .  S
C232        C233   1.402       .  A
C233        C234   1.405       .  A
C233        O238   1.371       .  S
C234        C235   1.394       .  A
C235        H239   1.084       .  S
C235        C236   1.399       .  A
C236        O240   1.367       .  S
O238        H242   0.992       .  S
O240        H241   0.992       .  S
C243        C244   1.395       .  A
C243        C248   1.400       .  A
C244        H249   1.084       .  S
C244        C245   1.396       .  A
C245        C246   1.420       .  A
C245        O250   1.369       .  S
C246        C247   1.409       .  A
C247        H251   1.072       .  S
C247        C248   1.399       .  A
C248        O252   1.372       .  S
O250        H254   0.992       .  S
O252        H253   0.992       .  S
C255        C256   1.406       .  A
C255        C260   1.417       .  A
C256        H261   1.076       .  S
C256        C257   1.398       .  A
C257        C258   1.409       .  A
C257        O262   1.370       .  S
C258        C259   1.399       .  A
C259        H263   1.084       .  S
C259        C260   1.407       .  A
C260        O264   1.367       .  S
O262        H266   0.992       .  S
O264        H265   0.992       .  S
C267        C268   1.409       .  A
C267        C272   1.417       .  A
C268        H273   1.074       .  S
C268        C269   1.395       .  A
C269        C270   1.399       .  A
C269        O274   1.372       .  S
C270        C271   1.395       .  A
C271        H275   1.084       .  S
C271        C272   1.408       .  A
C272        O276   1.367       .  S
O274        H278   0.992       .  S
O276        H277   0.993       .  S
C279        C280   1.407       .  A
C279        C284   1.421       .  A
C280        H285   1.062       .  S
C280        C281   1.408       .  A
C281        C282   1.404       .  A
C281        O286   1.371       .  S
C282        C283   1.391       .  A
C283        H287   1.084       .  S
C283        C284   1.395       .  A
C284        O288   1.359       .  S
O286        H290   0.992       .  S
O288        H289   0.992       .  S
C291        C292   1.409       .  A
C291        C296   1.414       .  A
C292        H297   1.081       .  S
C292        C293   1.403       .  A
C293        C294   1.404       .  A
C293        O298   1.371       .  S
C294        C295   1.396       .  A
C295        H299   1.084       .  S
C295        C296   1.399       .  A
C296        O300   1.364       .  S
O298        H302   0.992       .  S
O300        H301   0.992       .  S
C303        C304   1.400       .  A
C303        C308   1.406       .  A
C304        H309   1.081       .  S
C304        C305   1.407       .  A
C305        C306   1.417       .  A
C305        O310   1.369       .  S
C306        C307   1.414       .  A
C307        H311   1.080       .  S
C307        C308   1.404       .  A
C308        O312   1.372       .  S
O310        H314   0.992       .  S
O312        H313   0.992       .  S
C315        N333   1.348       .  A
C315        C352   1.460       .  S
C315        C427   1.470       .  S
N316        N333   1.322       .  A
N316        N338   1.318       .  A
C317        N342   1.337       .  A
C317        C355   1.451       .  S
C317        H362   1.082       .  S
H318        C359   1.082       .  S
C319        N343   1.338       .  A
C319        C323   1.456       .  S
C319        H348   1.082       .  S
Co320       N966   2.079   1_445  S
Co320       N328   2.080   1_545  S
Co320       N674   2.091   1_455  S
N321        C359   1.342       .  A
N321        N328   1.323       .  A
N321       Co479   2.104   1_565  S
Co322       N478   2.104   1_544  S
Co322       N325   2.081   1_545  S
C323        N361   1.349       .  A
C323        C391   1.470       .  S
N324        N331   1.319       .  A
N324        N354   1.327       .  A
N325        N343   1.320       .  A
N325        N361   1.325       .  A
N326        C355   1.350       .  A
N326        N336   1.326       .  A
H327        C352   1.082       .  S
N328        N349   1.324       .  A
N329        N347   1.319       .  A
N329        N334   1.327       .  A
C330        N334   1.356       .  A
C330        C358   1.460       .  S
C330        C415   1.486       .  S
N331        C346   1.339       .  A
C332        N360   1.340       .  A
C332        C335   1.465       .  S
C332        H366   1.082       .  S
C335        N356   1.350       .  A
C335        C439   1.478       .  S
N336        N342   1.320       .  A
N337        C363   1.335       .  A
N337        N339   1.316       .  A
N337       Co510   2.061   1_554  S
N338        C352   1.340       .  A
N338       Co948   2.079   1_565  S
N339        N367   1.325       .  A
N339       Co357   2.083       .  S
H340        C363   1.082       .  S
H341        C358   1.080       .  S
N343       Co671   2.077   1_465  S
N344        N356   1.326       .  A
N344        N360   1.320       .  A
N344       Co353   2.088       .  S
C345        N349   1.347       .  A
C345        C359   1.464       .  S
C345        C451   1.471       .  S
C346        C365   1.465       .  S
C346        H350   1.081       .  S
N347        C358   1.337       .  A
N347       Co985   2.077   1_455  S
C351        N367   1.351       .  A
C351        C363   1.453       .  S
C351        C400   1.466       .  S
Co353       N494   2.061       .  S
Co353     Cl1149   2.445       .  S
N354        C365   1.354       .  A
C355        C379   1.464       .  S
Co357       N657   2.077       .  S
Co357       N975   2.077       .  S
Co357      Cl992   2.448       .  S
N360       Co634   2.091       .  S
Cl364     Co1138   2.445   1_554  S
Cl364      Co985   2.448       .  S
C365        C460   1.490       .  S
C368        C369   1.567       .  S
C368        C371   1.575       .  S
C368        C372   1.562       .  S
C368        C376   1.535       .  S
C369        C370   1.555       .  S
C369        C375   1.564       .  S
C369        C448   1.540       .  S
C370        C371   1.558       .  S
C370        C374   1.569       .  S
C370        C388   1.535       .  S
C371        C373   1.568       .  S
C371        C412   1.547       .  S
C372        C373   1.568       .  S
C372        C375   1.585       .  S
C372        C436   1.565       .  S
C373        C374   1.570       .  S
C373        C403   1.536       .  S
C374        C375   1.581       .  S
C374        C463   1.563       .  S
C375        C424   1.552       .  S
C376        C377   1.409       .  A
C376        C381   1.416       .  A
C377        H382   1.081       .  S
C377        C378   1.402       .  A
C378        C379   1.404       .  A
C378        O383   1.371       .  S
C379        C380   1.392       .  A
C380        H384   1.084       .  S
C380        C381   1.399       .  A
C381        O385   1.367       .  S
O383        H387   0.992       .  S
O385        H386   0.993       .  S
C388        C389   1.407       .  A
C388        C393   1.416       .  A
C389        H394   1.081       .  S
C389        C390   1.402       .  A
C390        C391   1.405       .  A
C390        O395   1.371       .  S
C391        C392   1.394       .  A
C392        H396   1.084       .  S
C392        C393   1.399       .  A
C393        O397   1.367       .  S
O395        H399   0.992       .  S
O397        H398   0.992       .  S
C400        C401   1.395       .  A
C400        C405   1.400       .  A
C401        H406   1.084       .  S
C401        C402   1.396       .  A
C402        C403   1.420       .  A
C402        O407   1.369       .  S
C403        C404   1.409       .  A
C404        H408   1.072       .  S
C404        C405   1.399       .  A
C405        O409   1.372       .  S
O407        H411   0.992       .  S
O409        H410   0.992       .  S
C412        C413   1.406       .  A
C412        C417   1.417       .  A
C413        H418   1.076       .  S
C413        C414   1.398       .  A
C414        C415   1.409       .  A
C414        O419   1.370       .  S
C415        C416   1.399       .  A
C416        H420   1.084       .  S
C416        C417   1.407       .  A
C417        O421   1.367       .  S
O419        H423   0.992       .  S
O421        H422   0.992       .  S
C424        C425   1.409       .  A
C424        C429   1.417       .  A
C425        H430   1.074       .  S
C425        C426   1.395       .  A
C426        C427   1.399       .  A
C426        O431   1.372       .  S
C427        C428   1.395       .  A
C428        H432   1.084       .  S
C428        C429   1.408       .  A
C429        O433   1.367       .  S
O431        H435   0.992       .  S
O433        H434   0.993       .  S
C436        C437   1.407       .  A
C436        C441   1.421       .  A
C437        H442   1.062       .  S
C437        C438   1.408       .  A
C438        C439   1.404       .  A
C438        O443   1.371       .  S
C439        C440   1.391       .  A
C440        H444   1.084       .  S
C440        C441   1.395       .  A
C441        O445   1.359       .  S
O443        H447   0.992       .  S
O445        H446   0.992       .  S
C448        C449   1.409       .  A
C448        C453   1.414       .  A
C449        H454   1.081       .  S
C449        C450   1.403       .  A
C450        C451   1.404       .  A
C450        O455   1.371       .  S
C451        C452   1.396       .  A
C452        H456   1.084       .  S
C452        C453   1.399       .  A
C453        O457   1.364       .  S
O455        H459   0.992       .  S
O457        H458   0.992       .  S
C460        C461   1.400       .  A
C460        C465   1.406       .  A
C461        H466   1.081       .  S
C461        C462   1.407       .  A
C462        C463   1.417       .  A
C462        O467   1.369       .  S
C463        C464   1.414       .  A
C464        H468   1.080       .  S
C464        C465   1.404       .  A
C465        O469   1.372       .  S
O467        H471   0.992       .  S
O469        H470   0.992       .  S
C472        N490   1.348       .  A
C472        C509   1.460       .  S
C472        C584   1.470       .  S
N473        N490   1.322       .  A
N473        N495   1.318       .  A
C474        N499   1.337       .  A
C474        C512   1.451       .  S
C474        H519   1.082       .  S
H475        C516   1.082       .  S
C476        N500   1.338       .  A
C476        C480   1.456       .  S
C476        H505   1.082       .  S
Co477      N1123   2.079   1_445  S
Co477       N485   2.080   1_545  S
Co477       N831   2.091   1_455  S
N478        C516   1.342       .  A
N478        N485   1.323       .  A
Co479       N482   2.081   1_545  S
C480        N518   1.349       .  A
C480        C548   1.470       .  S
N481        N488   1.319       .  A
N481        N511   1.327       .  A
N482        N500   1.320       .  A
N482        N518   1.325       .  A
N483        C512   1.350       .  A
N483        N493   1.326       .  A
H484        C509   1.082       .  S
N485        N506   1.324       .  A
N486        N504   1.319       .  A
N486        N491   1.327       .  A
C487        N491   1.356       .  A
C487        C515   1.460       .  S
C487        C572   1.486       .  S
N488        C503   1.339       .  A
C489        N517   1.340       .  A
C489        C492   1.465       .  S
C489        H523   1.082       .  S
C492        N513   1.350       .  A
C492        C596   1.478       .  S
N493        N499   1.320       .  A
N494        C520   1.335       .  A
N494        N496   1.316       .  A
N495        C509   1.340       .  A
N495      Co1105   2.079   1_565  S
N496        N524   1.325       .  A
N496       Co514   2.083       .  S
H497        C520   1.082       .  S
H498        C515   1.080       .  S
N500       Co828   2.077   1_465  S
N501        N513   1.326       .  A
N501        N517   1.320       .  A
N501       Co510   2.088       .  S
C502        N506   1.347       .  A
C502        C516   1.464       .  S
C502        C608   1.471       .  S
C503        C522   1.465       .  S
C503        H507   1.081       .  S
N504        C515   1.337       .  A
N504      Co1142   2.077   1_455  S
C508        N524   1.351       .  A
C508        C520   1.453       .  S
C508        C557   1.466       .  S
Co510      Cl992   2.445   1_556  S
N511        C522   1.354       .  A
C512        C536   1.464       .  S
Co514       N814   2.077       .  S
Co514      N1132   2.077       .  S
Co514     Cl1149   2.448       .  S
N517       Co791   2.091       .  S
Cl521      Co981   2.445       .  S
Cl521     Co1142   2.448       .  S
C522        C617   1.490       .  S
C525        C526   1.567       .  S
C525        C528   1.575       .  S
C525        C529   1.562       .  S
C525        C533   1.535       .  S
C526        C527   1.555       .  S
C526        C532   1.564       .  S
C526        C605   1.540       .  S
C527        C528   1.558       .  S
C527        C531   1.569       .  S
C527        C545   1.535       .  S
C528        C530   1.568       .  S
C528        C569   1.547       .  S
C529        C530   1.568       .  S
C529        C532   1.585       .  S
C529        C593   1.565       .  S
C530        C531   1.570       .  S
C530        C560   1.536       .  S
C531        C532   1.581       .  S
C531        C620   1.563       .  S
C532        C581   1.552       .  S
C533        C534   1.409       .  A
C533        C538   1.416       .  A
C534        H539   1.081       .  S
C534        C535   1.402       .  A
C535        C536   1.404       .  A
C535        O540   1.371       .  S
C536        C537   1.392       .  A
C537        H541   1.084       .  S
C537        C538   1.399       .  A
C538        O542   1.367       .  S
O540        H544   0.992       .  S
O542        H543   0.993       .  S
C545        C546   1.407       .  A
C545        C550   1.416       .  A
C546        H551   1.081       .  S
C546        C547   1.402       .  A
C547        C548   1.405       .  A
C547        O552   1.371       .  S
C548        C549   1.394       .  A
C549        H553   1.084       .  S
C549        C550   1.399       .  A
C550        O554   1.367       .  S
O552        H556   0.992       .  S
O554        H555   0.992       .  S
C557        C558   1.395       .  A
C557        C562   1.400       .  A
C558        H563   1.084       .  S
C558        C559   1.396       .  A
C559        C560   1.420       .  A
C559        O564   1.369       .  S
C560        C561   1.409       .  A
C561        H565   1.072       .  S
C561        C562   1.399       .  A
C562        O566   1.372       .  S
O564        H568   0.992       .  S
O566        H567   0.992       .  S
C569        C570   1.406       .  A
C569        C574   1.417       .  A
C570        H575   1.076       .  S
C570        C571   1.398       .  A
C571        C572   1.409       .  A
C571        O576   1.370       .  S
C572        C573   1.399       .  A
C573        H577   1.084       .  S
C573        C574   1.407       .  A
C574        O578   1.367       .  S
O576        H580   0.992       .  S
O578        H579   0.992       .  S
C581        C582   1.409       .  A
C581        C586   1.417       .  A
C582        H587   1.074       .  S
C582        C583   1.395       .  A
C583        C584   1.399       .  A
C583        O588   1.372       .  S
C584        C585   1.395       .  A
C585        H589   1.084       .  S
C585        C586   1.408       .  A
C586        O590   1.367       .  S
O588        H592   0.992       .  S
O590        H591   0.993       .  S
C593        C594   1.407       .  A
C593        C598   1.421       .  A
C594        H599   1.062       .  S
C594        C595   1.408       .  A
C595        C596   1.404       .  A
C595        O600   1.371       .  S
C596        C597   1.391       .  A
C597        H601   1.084       .  S
C597        C598   1.395       .  A
C598        O602   1.359       .  S
O600        H604   0.992       .  S
O602        H603   0.992       .  S
C605        C606   1.409       .  A
C605        C610   1.414       .  A
C606        H611   1.081       .  S
C606        C607   1.403       .  A
C607        C608   1.404       .  A
C607        O612   1.371       .  S
C608        C609   1.396       .  A
C609        H613   1.084       .  S
C609        C610   1.399       .  A
C610        O614   1.364       .  S
O612        H616   0.992       .  S
O614        H615   0.992       .  S
C617        C618   1.400       .  A
C617        C622   1.406       .  A
C618        H623   1.081       .  S
C618        C619   1.407       .  A
C619        C620   1.417       .  A
C619        O624   1.369       .  S
C620        C621   1.414       .  A
C621        H625   1.080       .  S
C621        C622   1.404       .  A
C622        O626   1.372       .  S
O624        H628   0.992       .  S
O626        H627   0.992       .  S
C629        N647   1.348       .  A
C629        C666   1.460       .  S
C629        C741   1.470       .  S
N630        N647   1.322       .  A
N630        N652   1.318       .  A
N630       Co981   2.069       .  S
C631        N656   1.337       .  A
C631        C669   1.451       .  S
C631        H676   1.082       .  S
H632        C673   1.082       .  S
C633        N657   1.338       .  A
C633        C637   1.456       .  S
C633        H662   1.082       .  S
Co634       N642   2.080       .  S
Co634       N964   2.086       .  S
Co634     Cl1149   2.451       .  S
N635        C673   1.342       .  A
N635        N642   1.323       .  A
N635       Co793   2.104       .  S
Co636       N792   2.104   1_554  S
Co636       N639   2.081       .  S
Co636      N1127   2.069   1_554  S
Co636       N957   2.100       .  S
Co636      Cl992   2.449       .  S
C637        N675   1.349       .  A
C637        C705   1.470       .  S
N638        N645   1.319       .  A
N638        N668   1.327       .  A
N638       Co985   2.093       .  S
N639        N657   1.320       .  A
N639        N675   1.325       .  A
N640        C669   1.350       .  A
N640        N650   1.326       .  A
H641        C666   1.082       .  S
N642        N663   1.324       .  A
N643        N661   1.319       .  A
N643        N648   1.327       .  A
N643       Co950   2.100       .  S
C644        N648   1.356       .  A
C644        C672   1.460       .  S
C644        C729   1.486       .  S
N645        C660   1.339       .  A
N645      Co1138   2.087   1_554  S
C646        N674   1.340       .  A
C646        C649   1.465       .  S
C646        H680   1.082       .  S
C649        N670   1.350       .  A
C649        C753   1.478       .  S
N650        N656   1.320       .  A
N650       Co948   2.086       .  S
N651        C677   1.335       .  A
N651        N653   1.316       .  A
N651       Co824   2.061   1_554  S
N652        C666   1.340       .  A
N653        N681   1.325       .  A
N653       Co671   2.083       .  S
H654        C677   1.082       .  S
H655        C672   1.080       .  S
N656      Co1107   2.069       .  S
N658        N670   1.326       .  A
N658        N674   1.320       .  A
N658       Co667   2.088       .  S
C659        N663   1.347       .  A
C659        C673   1.464       .  S
C659        C765   1.471       .  S
C660        C679   1.465       .  S
C660        H664   1.081       .  S
N661        C672   1.337       .  A
C665        N681   1.351       .  A
C665        C677   1.453       .  S
C665        C714   1.466       .  S
Co667       N944   2.069   1_545  S
Co667      N1116   2.087   1_545  S
Co667       N808   2.061       .  S
N668        C679   1.354       .  A
C669        C693   1.464       .  S
Co671       N952   2.093   1_545  S
Cl678     Co1105   2.451   1_554  S
Cl678      Co950   2.449       .  S
C679        C774   1.490       .  S
C682        C683   1.567       .  S
C682        C685   1.575       .  S
C682        C686   1.562       .  S
C682        C690   1.535       .  S
C683        C684   1.555       .  S
C683        C689   1.564       .  S
C683        C762   1.540       .  S
C684        C685   1.558       .  S
C684        C688   1.569       .  S
C684        C702   1.535       .  S
C685        C687   1.568       .  S
C685        C726   1.547       .  S
C686        C687   1.568       .  S
C686        C689   1.585       .  S
C686        C750   1.565       .  S
C687        C688   1.570       .  S
C687        C717   1.536       .  S
C688        C689   1.581       .  S
C688        C777   1.563       .  S
C689        C738   1.552       .  S
C690        C691   1.409       .  A
C690        C695   1.416       .  A
C691        H696   1.081       .  S
C691        C692   1.402       .  A
C692        C693   1.404       .  A
C692        O697   1.371       .  S
C693        C694   1.392       .  A
C694        H698   1.084       .  S
C694        C695   1.399       .  A
C695        O699   1.367       .  S
O697        H701   0.992       .  S
O699        H700   0.993       .  S
C702        C703   1.407       .  A
C702        C707   1.416       .  A
C703        H708   1.081       .  S
C703        C704   1.402       .  A
C704        C705   1.405       .  A
C704        O709   1.371       .  S
C705        C706   1.394       .  A
C706        H710   1.084       .  S
C706        C707   1.399       .  A
C707        O711   1.367       .  S
O709        H713   0.992       .  S
O711        H712   0.992       .  S
C714        C715   1.395       .  A
C714        C719   1.400       .  A
C715        H720   1.084       .  S
C715        C716   1.396       .  A
C716        C717   1.420       .  A
C716        O721   1.369       .  S
C717        C718   1.409       .  A
C718        H722   1.072       .  S
C718        C719   1.399       .  A
C719        O723   1.372       .  S
O721        H725   0.992       .  S
O723        H724   0.992       .  S
C726        C727   1.406       .  A
C726        C731   1.417       .  A
C727        H732   1.076       .  S
C727        C728   1.398       .  A
C728        C729   1.409       .  A
C728        O733   1.370       .  S
C729        C730   1.399       .  A
C730        H734   1.084       .  S
C730        C731   1.407       .  A
C731        O735   1.367       .  S
O733        H737   0.992       .  S
O735        H736   0.992       .  S
C738        C739   1.409       .  A
C738        C743   1.417       .  A
C739        H744   1.074       .  S
C739        C740   1.395       .  A
C740        C741   1.399       .  A
C740        O745   1.372       .  S
C741        C742   1.395       .  A
C742        H746   1.084       .  S
C742        C743   1.408       .  A
C743        O747   1.367       .  S
O745        H749   0.992       .  S
O747        H748   0.993       .  S
C750        C751   1.407       .  A
C750        C755   1.421       .  A
C751        H756   1.062       .  S
C751        C752   1.408       .  A
C752        C753   1.404       .  A
C752        O757   1.371       .  S
C753        C754   1.391       .  A
C754        H758   1.084       .  S
C754        C755   1.395       .  A
C755        O759   1.359       .  S
O757        H761   0.992       .  S
O759        H760   0.992       .  S
C762        C763   1.409       .  A
C762        C767   1.414       .  A
C763        H768   1.081       .  S
C763        C764   1.403       .  A
C764        C765   1.404       .  A
C764        O769   1.371       .  S
C765        C766   1.396       .  A
C766        H770   1.084       .  S
C766        C767   1.399       .  A
C767        O771   1.364       .  S
O769        H773   0.992       .  S
O771        H772   0.992       .  S
C774        C775   1.400       .  A
C774        C779   1.406       .  A
C775        H780   1.081       .  S
C775        C776   1.407       .  A
C776        C777   1.417       .  A
C776        O781   1.369       .  S
C777        C778   1.414       .  A
C778        H782   1.080       .  S
C778        C779   1.404       .  A
C779        O783   1.372       .  S
O781        H785   0.992       .  S
O783        H784   0.992       .  S
C786        N804   1.348       .  A
C786        C823   1.460       .  S
C786        C898   1.470       .  S
N787        N804   1.322       .  A
N787        N809   1.318       .  A
N787      Co1138   2.069       .  S
C788        N813   1.337       .  A
C788        C826   1.451       .  S
C788        H833   1.082       .  S
H789        C830   1.082       .  S
C790        N814   1.338       .  A
C790        C794   1.456       .  S
C790        H819   1.082       .  S
Co791       N799   2.080       .  S
Co791      N1121   2.086       .  S
Co791      Cl992   2.451   1_556  S
N792        C830   1.342       .  A
N792        N799   1.323       .  A
Co793       N796   2.081       .  S
Co793       N970   2.069       .  S
Co793      N1114   2.100       .  S
Co793     Cl1149   2.449       .  S
C794        N832   1.349       .  A
C794        C862   1.470       .  S
N795        N802   1.319       .  A
N795        N825   1.327       .  A
N795      Co1142   2.093       .  S
N796        N814   1.320       .  A
N796        N832   1.325       .  A
N797        C826   1.350       .  A
N797        N807   1.326       .  A
H798        C823   1.082       .  S
N799        N820   1.324       .  A
N800        N818   1.319       .  A
N800        N805   1.327       .  A
N800      Co1107   2.100       .  S
C801        N805   1.356       .  A
C801        C829   1.460       .  S
C801        C886   1.486       .  S
N802        C817   1.339       .  A
N802       Co981   2.087       .  S
C803        N831   1.340       .  A
C803        C806   1.465       .  S
C803        H837   1.082       .  S
C806        N827   1.350       .  A
C806        C910   1.478       .  S
N807        N813   1.320       .  A
N807      Co1105   2.086       .  S
N808        C834   1.335       .  A
N808        N810   1.316       .  A
N809        C823   1.340       .  A
N810        N838   1.325       .  A
N810       Co828   2.083       .  S
H811        C834   1.082       .  S
H812        C829   1.080       .  S
N813       Co950   2.069   1_556  S
N815        N827   1.326       .  A
N815        N831   1.320       .  A
N815       Co824   2.088       .  S
C816        N820   1.347       .  A
C816        C830   1.464       .  S
C816        C922   1.471       .  S
C817        C836   1.465       .  S
C817        H821   1.081       .  S
N818        C829   1.337       .  A
C822        N838   1.351       .  A
C822        C834   1.453       .  S
C822        C871   1.466       .  S
Co824      N1101   2.069   1_545  S
Co824       N959   2.087   1_546  S
N825        C836   1.354       .  A
C826        C850   1.464       .  S
Co828      N1109   2.093   1_545  S
Cl835      Co948   2.451       .  S
Cl835     Co1107   2.449       .  S
C836        C931   1.490       .  S
C839        C840   1.567       .  S
C839        C842   1.575       .  S
C839        C843   1.562       .  S
C839        C847   1.535       .  S
C840        C841   1.555       .  S
C840        C846   1.564       .  S
C840        C919   1.540       .  S
C841        C842   1.558       .  S
C841        C845   1.569       .  S
C841        C859   1.535       .  S
C842        C844   1.568       .  S
C842        C883   1.547       .  S
C843        C844   1.568       .  S
C843        C846   1.585       .  S
C843        C907   1.565       .  S
C844        C845   1.570       .  S
C844        C874   1.536       .  S
C845        C846   1.581       .  S
C845        C934   1.563       .  S
C846        C895   1.552       .  S
C847        C848   1.409       .  A
C847        C852   1.416       .  A
C848        H853   1.081       .  S
C848        C849   1.402       .  A
C849        C850   1.404       .  A
C849        O854   1.371       .  S
C850        C851   1.392       .  A
C851        H855   1.084       .  S
C851        C852   1.399       .  A
C852        O856   1.367       .  S
O854        H858   0.992       .  S
O856        H857   0.993       .  S
C859        C860   1.407       .  A
C859        C864   1.416       .  A
C860        H865   1.081       .  S
C860        C861   1.402       .  A
C861        C862   1.405       .  A
C861        O866   1.371       .  S
C862        C863   1.394       .  A
C863        H867   1.084       .  S
C863        C864   1.399       .  A
C864        O868   1.367       .  S
O866        H870   0.992       .  S
O868        H869   0.992       .  S
C871        C872   1.395       .  A
C871        C876   1.400       .  A
C872        H877   1.084       .  S
C872        C873   1.396       .  A
C873        C874   1.420       .  A
C873        O878   1.369       .  S
C874        C875   1.409       .  A
C875        H879   1.072       .  S
C875        C876   1.399       .  A
C876        O880   1.372       .  S
O878        H882   0.992       .  S
O880        H881   0.992       .  S
C883        C884   1.406       .  A
C883        C888   1.417       .  A
C884        H889   1.076       .  S
C884        C885   1.398       .  A
C885        C886   1.409       .  A
C885        O890   1.370       .  S
C886        C887   1.399       .  A
C887        H891   1.084       .  S
C887        C888   1.407       .  A
C888        O892   1.367       .  S
O890        H894   0.992       .  S
O892        H893   0.992       .  S
C895        C896   1.409       .  A
C895        C900   1.417       .  A
C896        H901   1.074       .  S
C896        C897   1.395       .  A
C897        C898   1.399       .  A
C897        O902   1.372       .  S
C898        C899   1.395       .  A
C899        H903   1.084       .  S
C899        C900   1.408       .  A
C900        O904   1.367       .  S
O902        H906   0.992       .  S
O904        H905   0.993       .  S
C907        C908   1.407       .  A
C907        C912   1.421       .  A
C908        H913   1.062       .  S
C908        C909   1.408       .  A
C909        C910   1.404       .  A
C909        O914   1.371       .  S
C910        C911   1.391       .  A
C911        H915   1.084       .  S
C911        C912   1.395       .  A
C912        O916   1.359       .  S
O914        H918   0.992       .  S
O916        H917   0.992       .  S
C919        C920   1.409       .  A
C919        C924   1.414       .  A
C920        H925   1.081       .  S
C920        C921   1.403       .  A
C921        C922   1.404       .  A
C921        O926   1.371       .  S
C922        C923   1.396       .  A
C923        H927   1.084       .  S
C923        C924   1.399       .  A
C924        O928   1.364       .  S
O926        H930   0.992       .  S
O928        H929   0.992       .  S
C931        C932   1.400       .  A
C931        C936   1.406       .  A
C932        H937   1.081       .  S
C932        C933   1.407       .  A
C933        C934   1.417       .  A
C933        O938   1.369       .  S
C934        C935   1.414       .  A
C935        H939   1.080       .  S
C935        C936   1.404       .  A
C936        O940   1.372       .  S
O938        H942   0.992       .  S
O940        H941   0.992       .  S
C943        N961   1.348       .  A
C943        C980   1.460       .  S
C943       C1055   1.470       .  S
N944        N961   1.322       .  A
N944        N966   1.318       .  A
C945        N970   1.337       .  A
C945        C983   1.451       .  S
C945        H990   1.082       .  S
H946        C987   1.082       .  S
C947        N971   1.338       .  A
C947        C951   1.456       .  S
C947        H976   1.082       .  S
Co948       N956   2.080   1_545  S
N949        C987   1.342       .  A
N949        N956   1.323       .  A
N949      Co1107   2.104   1_565  S
Co950      N1106   2.104   1_544  S
Co950       N953   2.081   1_545  S
C951        N989   1.349       .  A
C951       C1019   1.470       .  S
N952        N959   1.319       .  A
N952        N982   1.327       .  A
N953        N971   1.320       .  A
N953        N989   1.325       .  A
N954        C983   1.350       .  A
N954        N964   1.326       .  A
H955        C980   1.082       .  S
N956        N977   1.324       .  A
N957        N975   1.319       .  A
N957        N962   1.327       .  A
C958        N962   1.356       .  A
C958        C986   1.460       .  S
C958       C1043   1.486       .  S
N959        C974   1.339       .  A
C960        N988   1.340       .  A
C960        C963   1.465       .  S
C960        H994   1.082       .  S
C963        N984   1.350       .  A
C963       C1067   1.478       .  S
N964        N970   1.320       .  A
N965        C991   1.335       .  A
N965        N967   1.316       .  A
N965      Co1138   2.061   1_554  S
N966        C980   1.340       .  A
N967        N995   1.325       .  A
N967       Co985   2.083       .  S
H968        C991   1.082       .  S
H969        C986   1.080       .  S
N972        N984   1.326       .  A
N972        N988   1.320       .  A
N972       Co981   2.088       .  S
C973        N977   1.347       .  A
C973        C987   1.464       .  S
C973       C1079   1.471       .  S
C974        C993   1.465       .  S
C974        H978   1.081       .  S
N975        C986   1.337       .  A
C979        N995   1.351       .  A
C979        C991   1.453       .  S
C979       C1028   1.466       .  S
Co981      N1122   2.061       .  S
N982        C993   1.354       .  A
C983       C1007   1.464       .  S
C993       C1088   1.490       .  S
C996        C997   1.567       .  S
C996        C999   1.575       .  S
C996       C1000   1.562       .  S
C996       C1004   1.535       .  S
C997        C998   1.555       .  S
C997       C1003   1.564       .  S
C997       C1076   1.540       .  S
C998        C999   1.558       .  S
C998       C1002   1.569       .  S
C998       C1016   1.535       .  S
C999       C1001   1.568       .  S
C999       C1040   1.547       .  S
C1000      C1001   1.568       .  S
C1000      C1003   1.585       .  S
C1000      C1064   1.565       .  S
C1001      C1002   1.570       .  S
C1001      C1031   1.536       .  S
C1002      C1003   1.581       .  S
C1002      C1091   1.563       .  S
C1003      C1052   1.552       .  S
C1004      C1005   1.409       .  A
C1004      C1009   1.416       .  A
C1005      H1010   1.081       .  S
C1005      C1006   1.402       .  A
C1006      C1007   1.404       .  A
C1006      O1011   1.371       .  S
C1007      C1008   1.392       .  A
C1008      H1012   1.084       .  S
C1008      C1009   1.399       .  A
C1009      O1013   1.367       .  S
O1011      H1015   0.992       .  S
O1013      H1014   0.993       .  S
C1016      C1017   1.407       .  A
C1016      C1021   1.416       .  A
C1017      H1022   1.081       .  S
C1017      C1018   1.402       .  A
C1018      C1019   1.405       .  A
C1018      O1023   1.371       .  S
C1019      C1020   1.394       .  A
C1020      H1024   1.084       .  S
C1020      C1021   1.399       .  A
C1021      O1025   1.367       .  S
O1023      H1027   0.992       .  S
O1025      H1026   0.992       .  S
C1028      C1029   1.395       .  A
C1028      C1033   1.400       .  A
C1029      H1034   1.084       .  S
C1029      C1030   1.396       .  A
C1030      C1031   1.420       .  A
C1030      O1035   1.369       .  S
C1031      C1032   1.409       .  A
C1032      H1036   1.072       .  S
C1032      C1033   1.399       .  A
C1033      O1037   1.372       .  S
O1035      H1039   0.992       .  S
O1037      H1038   0.992       .  S
C1040      C1041   1.406       .  A
C1040      C1045   1.417       .  A
C1041      H1046   1.076       .  S
C1041      C1042   1.398       .  A
C1042      C1043   1.409       .  A
C1042      O1047   1.370       .  S
C1043      C1044   1.399       .  A
C1044      H1048   1.084       .  S
C1044      C1045   1.407       .  A
C1045      O1049   1.367       .  S
O1047      H1051   0.992       .  S
O1049      H1050   0.992       .  S
C1052      C1053   1.409       .  A
C1052      C1057   1.417       .  A
C1053      H1058   1.074       .  S
C1053      C1054   1.395       .  A
C1054      C1055   1.399       .  A
C1054      O1059   1.372       .  S
C1055      C1056   1.395       .  A
C1056      H1060   1.084       .  S
C1056      C1057   1.408       .  A
C1057      O1061   1.367       .  S
O1059      H1063   0.992       .  S
O1061      H1062   0.993       .  S
C1064      C1065   1.407       .  A
C1064      C1069   1.421       .  A
C1065      H1070   1.062       .  S
C1065      C1066   1.408       .  A
C1066      C1067   1.404       .  A
C1066      O1071   1.371       .  S
C1067      C1068   1.391       .  A
C1068      H1072   1.084       .  S
C1068      C1069   1.395       .  A
C1069      O1073   1.359       .  S
O1071      H1075   0.992       .  S
O1073      H1074   0.992       .  S
C1076      C1077   1.409       .  A
C1076      C1081   1.414       .  A
C1077      H1082   1.081       .  S
C1077      C1078   1.403       .  A
C1078      C1079   1.404       .  A
C1078      O1083   1.371       .  S
C1079      C1080   1.396       .  A
C1080      H1084   1.084       .  S
C1080      C1081   1.399       .  A
C1081      O1085   1.364       .  S
O1083      H1087   0.992       .  S
O1085      H1086   0.992       .  S
C1088      C1089   1.400       .  A
C1088      C1093   1.406       .  A
C1089      H1094   1.081       .  S
C1089      C1090   1.407       .  A
C1090      C1091   1.417       .  A
C1090      O1095   1.369       .  S
C1091      C1092   1.414       .  A
C1092      H1096   1.080       .  S
C1092      C1093   1.404       .  A
C1093      O1097   1.372       .  S
O1095      H1099   0.992       .  S
O1097      H1098   0.992       .  S
C1100      N1118   1.348       .  A
C1100      C1137   1.460       .  S
C1100      C1212   1.470       .  S
N1101      N1118   1.322       .  A
N1101      N1123   1.318       .  A
C1102      N1127   1.337       .  A
C1102      C1140   1.451       .  S
C1102      H1147   1.082       .  S
H1103      C1144   1.082       .  S
C1104      N1128   1.338       .  A
C1104      C1108   1.456       .  S
C1104      H1133   1.082       .  S
Co1105     N1113   2.080   1_545  S
N1106      C1144   1.342       .  A
N1106      N1113   1.323       .  A
Co1107     N1110   2.081   1_545  S
C1108      N1146   1.349       .  A
C1108      C1176   1.470       .  S
N1109      N1116   1.319       .  A
N1109      N1139   1.327       .  A
N1110      N1128   1.320       .  A
N1110      N1146   1.325       .  A
N1111      C1140   1.350       .  A
N1111      N1121   1.326       .  A
H1112      C1137   1.082       .  S
N1113      N1134   1.324       .  A
N1114      N1132   1.319       .  A
N1114      N1119   1.327       .  A
C1115      N1119   1.356       .  A
C1115      C1143   1.460       .  S
C1115      C1200   1.486       .  S
N1116      C1131   1.339       .  A
C1117      N1145   1.340       .  A
C1117      C1120   1.465       .  S
C1117      H1151   1.082       .  S
C1120      N1141   1.350       .  A
C1120      C1224   1.478       .  S
N1121      N1127   1.320       .  A
N1122      C1148   1.335       .  A
N1122      N1124   1.316       .  A
N1123      C1137   1.340       .  A
N1124      N1152   1.325       .  A
N1124     Co1142   2.083       .  S
H1125      C1148   1.082       .  S
H1126      C1143   1.080       .  S
N1129      N1141   1.326       .  A
N1129      N1145   1.320       .  A
N1129     Co1138   2.088       .  S
C1130      N1134   1.347       .  A
C1130      C1144   1.464       .  S
C1130      C1236   1.471       .  S
C1131      C1150   1.465       .  S
C1131      H1135   1.081       .  S
N1132      C1143   1.337       .  A
C1136      N1152   1.351       .  A
C1136      C1148   1.453       .  S
C1136      C1185   1.466       .  S
N1139      C1150   1.354       .  A
C1140      C1164   1.464       .  S
C1150      C1245   1.490       .  S
C1153      C1154   1.567       .  S
C1153      C1156   1.575       .  S
C1153      C1157   1.562       .  S
C1153      C1161   1.535       .  S
C1154      C1155   1.555       .  S
C1154      C1160   1.564       .  S
C1154      C1233   1.540       .  S
C1155      C1156   1.558       .  S
C1155      C1159   1.569       .  S
C1155      C1173   1.535       .  S
C1156      C1158   1.568       .  S
C1156      C1197   1.547       .  S
C1157      C1158   1.568       .  S
C1157      C1160   1.585       .  S
C1157      C1221   1.565       .  S
C1158      C1159   1.570       .  S
C1158      C1188   1.536       .  S
C1159      C1160   1.581       .  S
C1159      C1248   1.563       .  S
C1160      C1209   1.552       .  S
C1161      C1162   1.409       .  A
C1161      C1166   1.416       .  A
C1162      H1167   1.081       .  S
C1162      C1163   1.402       .  A
C1163      C1164   1.404       .  A
C1163      O1168   1.371       .  S
C1164      C1165   1.392       .  A
C1165      H1169   1.084       .  S
C1165      C1166   1.399       .  A
C1166      O1170   1.367       .  S
O1168      H1172   0.992       .  S
O1170      H1171   0.993       .  S
C1173      C1174   1.407       .  A
C1173      C1178   1.416       .  A
C1174      H1179   1.081       .  S
C1174      C1175   1.402       .  A
C1175      C1176   1.405       .  A
C1175      O1180   1.371       .  S
C1176      C1177   1.394       .  A
C1177      H1181   1.084       .  S
C1177      C1178   1.399       .  A
C1178      O1182   1.367       .  S
O1180      H1184   0.992       .  S
O1182      H1183   0.992       .  S
C1185      C1186   1.395       .  A
C1185      C1190   1.400       .  A
C1186      H1191   1.084       .  S
C1186      C1187   1.396       .  A
C1187      C1188   1.420       .  A
C1187      O1192   1.369       .  S
C1188      C1189   1.409       .  A
C1189      H1193   1.072       .  S
C1189      C1190   1.399       .  A
C1190      O1194   1.372       .  S
O1192      H1196   0.992       .  S
O1194      H1195   0.992       .  S
C1197      C1198   1.406       .  A
C1197      C1202   1.417       .  A
C1198      H1203   1.076       .  S
C1198      C1199   1.398       .  A
C1199      C1200   1.409       .  A
C1199      O1204   1.370       .  S
C1200      C1201   1.399       .  A
C1201      H1205   1.084       .  S
C1201      C1202   1.407       .  A
C1202      O1206   1.367       .  S
O1204      H1208   0.992       .  S
O1206      H1207   0.992       .  S
C1209      C1210   1.409       .  A
C1209      C1214   1.417       .  A
C1210      H1215   1.074       .  S
C1210      C1211   1.395       .  A
C1211      C1212   1.399       .  A
C1211      O1216   1.372       .  S
C1212      C1213   1.395       .  A
C1213      H1217   1.084       .  S
C1213      C1214   1.408       .  A
C1214      O1218   1.367       .  S
O1216      H1220   0.992       .  S
O1218      H1219   0.993       .  S
C1221      C1222   1.407       .  A
C1221      C1226   1.421       .  A
C1222      H1227   1.062       .  S
C1222      C1223   1.408       .  A
C1223      C1224   1.404       .  A
C1223      O1228   1.371       .  S
C1224      C1225   1.391       .  A
C1225      H1229   1.084       .  S
C1225      C1226   1.395       .  A
C1226      O1230   1.359       .  S
O1228      H1232   0.992       .  S
O1230      H1231   0.992       .  S
C1233      C1234   1.409       .  A
C1233      C1238   1.414       .  A
C1234      H1239   1.081       .  S
C1234      C1235   1.403       .  A
C1235      C1236   1.404       .  A
C1235      O1240   1.371       .  S
C1236      C1237   1.396       .  A
C1237      H1241   1.084       .  S
C1237      C1238   1.399       .  A
C1238      O1242   1.364       .  S
O1240      H1244   0.992       .  S
O1242      H1243   0.992       .  S
C1245      C1246   1.400       .  A
C1245      C1250   1.406       .  A
C1246      H1251   1.081       .  S
C1246      C1247   1.407       .  A
C1247      C1248   1.417       .  A
C1247      O1252   1.369       .  S
C1248      C1249   1.414       .  A
C1249      H1253   1.080       .  S
C1249      C1250   1.404       .  A
C1250      O1254   1.372       .  S
O1252      H1256   0.992       .  S
O1254      H1255   0.992       .  S
