geometry optimzed in LAMMPS
_audit_creation_date              2020-12-01 
_audit_creation_method            'lammps2cif' 
_symmetry_space_group_name_H-M    'P1' 
_symmetry_Int_Tables_number       1 
_symmetry_cell_setting            triclinic 
loop_ 
_symmetry_equiv_pos_as_xyz 
  x,y,z 
_cell_length_a                    40.13635459 
_cell_length_b                    40.841293052938546 
_cell_length_c                    49.577363164772976 
_cell_angle_alpha                 89.80223826127703 
_cell_angle_beta                  90.34031835186202 
_cell_angle_gamma                 121.34541805426038 
loop_ 
_atom_site_label 
_atom_site_type_symbol 
_atom_site_fract_x 
_atom_site_fract_y 
_atom_site_fract_z 
_atom_site_charge 
N1          N  0.53232440  0.85773685  0.99040910    -0.02500
C2          C  0.50614423  0.84597940  0.01097275     0.00000
C3          C  0.46874121  0.82734417  0.00037707    -0.22800
C4          C  0.44101631  0.82351667  0.48129570    -0.23000
C5          C  0.47736679  0.83410863  0.47150938    -0.00100
H6          H  0.44201835  0.81813711  0.01130132     0.13700
H7          H  0.41707969  0.82177643  0.46986586     0.13800
N8          N  0.21379358  0.84879914  0.49051672    -0.02500
C9          C  0.21509187  0.85729267  0.01408147     0.00000
C10         C  0.20501920  0.88291246  0.00471966    -0.22800
C11         C  0.20363770  0.89492044  0.47578981    -0.23000
C12         C  0.21338382  0.86838369  0.46822619    -0.00100
H13         H  0.20329849  0.90411097  0.01668801     0.13700
H14         H  0.20462280  0.91716784  0.46327673     0.13800
O15         O  0.37965865  0.99161679  0.28693054    -0.74400
O16         O  0.42625730  0.02693476  0.31852431    -0.53300
C17         C  0.39188549  0.99981406  0.31149371     0.79400
O18         O  0.50277152  0.99159484  0.19427409    -0.59000
O19         O  0.49465166  0.02819783  0.16333092    -0.52000
C20         C  0.50031579  0.00080770  0.16969562     0.71400
O21         O  0.49879292  0.98643053  0.28573729    -0.73500
O22         O  0.49631576  0.02505984  0.31754046    -0.54100
C23         C  0.49836985  0.99579366  0.31053068     0.77400
O24         O  0.37777921  0.99372044  0.19643797    -0.58700
O25         O  0.42329174  0.02936744  0.16444950    -0.51800
C26         C  0.38924285  0.00220007  0.17183106     0.74000
Zr27       Zr  0.40386163  0.01652463  0.24169148     2.54700
O28         O  0.35911110  0.94743576  0.24050573    -0.79200
O29         O  0.34883705  0.02611722  0.24256937    -0.92600
Zr30       Zr  0.50087483  0.01246537  0.24054196     2.64700
O31         O  0.46674856  0.94271548  0.23951652    -0.97600
O32         O  0.56494045  0.01957963  0.24193049    -0.79700
O33         O  0.45246248  0.01355087  0.26706473    -0.83000
O34         O  0.45161179  0.01420168  0.21521560    -2.17700
O35         O  0.46075641  0.15073005  0.19722577    -0.66400
O36         O  0.46963293  0.11611769  0.16507893    -0.51000
C37         C  0.46285755  0.14237423  0.17246474     0.72400
O38         O  0.59255809  0.14596187  0.28608355    -0.59300
O39         O  0.54598130  0.11132481  0.31768501    -0.51300
C40         C  0.58111321  0.13647107  0.31057128     0.74200
O41         O  0.59119891  0.14326968  0.19623082    -0.70700
O42         O  0.54315847  0.11356113  0.16469324    -0.49400
C43         C  0.57907488  0.13646306  0.17164393     0.75500
O44         O  0.46250454  0.14950172  0.28818289    -0.66000
O45         O  0.47291552  0.11428539  0.31920051    -0.53200
C46         C  0.46573181  0.14064627  0.31265707     0.73900
Zr47       Zr  0.46743243  0.13011902  0.24238826     2.77500
O48         O  0.51222932  0.19926280  0.24401530    -0.96800
O49         O  0.41010934  0.13583051  0.24291086    -0.77600
Zr50       Zr  0.56368586  0.12613924  0.24129279     2.70100
O51         O  0.59565044  0.19563593  0.24150497    -0.78900
O52         O  0.62459826  0.12663765  0.24043172    -0.97900
Zr53       Zr  0.48492428  0.07049384  0.29354390     2.21500
Zr54       Zr  0.48295202  0.07193527  0.18924840     2.11100
O55         O  0.51559346  0.12926010  0.21539308    -2.46600
O56         O  0.51636023  0.12834780  0.26822864    -0.78700
O57         O  0.43415607  0.07363705  0.21556928    -0.70800
O58         O  0.53366624  0.06885353  0.26725248    -2.31800
O59         O  0.43524180  0.07288867  0.26843413    -2.28000
O60         O  0.53240912  0.06963835  0.21455308    -0.72600
H61         H  0.43915835  0.99185034  0.20372572     0.79400
H62         H  0.55271107  0.06787104  0.27866015     0.80500
H63         H  0.52796185  0.15160901  0.20390838     0.82700
H64         H  0.41660333  0.07333276  0.28045531     0.80300
H65         H  0.58049827  0.03987998  0.22854336     0.43300
H66         H  0.64499047  0.15344592  0.24470966     0.42300
H67         H  0.58180683  0.20117755  0.25552079     0.42000
H68         H  0.52563400  0.20599391  0.22637300     0.39900
H69         H  0.38845882  0.11022902  0.23731963     0.43100
H70         H  0.35406047  0.04351055  0.25797955     0.37800
H71         H  0.37622156  0.93687496  0.23819915     0.44000
H72         H  0.44603066  0.93490736  0.22571068     0.40400
H73         H  0.49512334  0.21003225  0.24328543     0.45300
H74         H  0.32658791  0.00112046  0.24856032     0.44000
H75         H  0.48547566  0.93675569  0.23140406     0.44200
H76         H  0.62364452  0.11173983  0.25651255     0.44500
N77         N  0.45740911  0.29839611  0.49200781    -0.02500
C78         C  0.48035131  0.29750142  0.47189250     0.00000
C79         C  0.51498762  0.30393200  0.48269127    -0.22800
C80         C  0.51248937  0.30610514  0.51001734    -0.23000
C81         C  0.47623101  0.30082352  0.51560121    -0.00100
H82         H  0.53720873  0.30150784  0.47222737     0.13700
H83         H  0.52302776  0.29785293  0.02486409     0.13800
N84         N  0.76840013  0.24271435  0.49207049    -0.02500
C85         C  0.75821773  0.21770556  0.47074013     0.00000
C86         C  0.74718711  0.18144393  0.47941160    -0.22800
C87         C  0.72912285  0.18825372  0.00191878    -0.23000
C88         C  0.74872999  0.22533712  0.01168802    -0.00100
H89         H  0.73394840  0.15564184  0.46726724     0.13700
H90         H  0.71227435  0.16208921  0.01341209     0.13800
O91         O  0.05478782  0.54741567  0.28561813    -0.74400
O92         O  0.01592917  0.55042650  0.31783108    -0.53300
C93         C  0.04580728  0.54902006  0.31021110     0.79400
O94         O  0.04881332  0.66687118  0.20004623    -0.59000
O95         O  0.01474574  0.62221918  0.16724948    -0.52000
C96         C  0.04201696  0.65562706  0.17527401     0.71400
O97         O  0.04069298  0.66097669  0.29108939    -0.73500
O98         O  0.00358891  0.61352026  0.32105008    -0.54100
C99         C  0.03036080  0.64818665  0.31532976     0.77400
O100        O  0.04694304  0.53998274  0.19487076    -0.58700
O101        O  0.01113753  0.55008460  0.16384629    -0.51800
C102        C  0.03780938  0.54288820  0.17034166     0.74000
Zr103      Zr  0.02762740  0.54420037  0.24099823     2.54700
O104        O  0.09836625  0.58329014  0.23759351    -0.79200
O105        O  0.02847323  0.48502493  0.24318183    -0.92600
Zr106      Zr  0.02242902  0.63873315  0.24444584     2.64700
O107        O  0.09296485  0.67848288  0.24980921    -0.97600
O108        O  0.01387217  0.69349998  0.24335224    -0.79700
O109        O  0.02447314  0.58973905  0.26871237    -0.83000
O110        O  0.02617872  0.59327356  0.21692018    -2.17700
O111        O  0.89061394  0.45669833  0.19515294    -0.66400
O112        O  0.92554571  0.50439611  0.16460508    -0.51000
C113        C  0.89954830  0.46958881  0.17097774     0.72400
O114        O  0.88225269  0.57257973  0.28801440    -0.59300
O115        O  0.91663019  0.56074297  0.31943171    -0.51300
C116        C  0.88939286  0.56690075  0.31239476     0.74200
O117        O  0.88697945  0.58346915  0.19724693    -0.70700
O118        O  0.92606926  0.57918512  0.16607614    -0.49400
C119        C  0.89784248  0.58385169  0.17272039     0.75500
O120        O  0.89735333  0.44902947  0.28387689    -0.66000
O121        O  0.92551904  0.49429734  0.31660538    -0.53200
C122        C  0.90407090  0.45912839  0.30880447     0.73900
Zr123      Zr  0.91197279  0.48124874  0.24030857     2.77500
O124        O  0.84143633  0.44944931  0.24448865    -0.96800
O125        O  0.91089271  0.42172179  0.23349982    -0.77600
Zr126      Zr  0.90722647  0.57598102  0.24260308     2.70100
O127        O  0.83626846  0.54047336  0.24037576    -0.78900
O128        O  0.91239063  0.63767402  0.24759134    -0.97900
Zr129      Zr  0.96576663  0.55608819  0.29409305     2.21500
Zr130      Zr  0.96824442  0.56285485  0.19016792     2.11100
O131        O  0.90926746  0.52955825  0.21531462    -2.46600
O132        O  0.90792935  0.52647019  0.26750543    -0.78700
O133        O  0.97004972  0.51327727  0.21438924    -0.70800
O134        O  0.96404969  0.60598242  0.26999097    -2.31800
O135        O  0.96976790  0.51020739  0.26689667    -2.28000
O136        O  0.96540712  0.60973928  0.21698684    -0.72600
H137        H  0.04918673  0.60568292  0.20591860     0.79400
H138        H  0.96251748  0.62345200  0.28228431     0.80500
H139        H  0.88680804  0.51805996  0.20348991     0.82700
H140        H  0.97129522  0.49154570  0.27800253     0.80300
H141        H  0.99404609  0.68784077  0.25731335     0.43300
H142        H  0.92623688  0.65215116  0.23119130     0.42300
H143        H  0.82794422  0.51818238  0.25244467     0.42000
H144        H  0.83720344  0.45662919  0.26264810     0.39900
H145        H  0.93839651  0.42891499  0.23582856     0.43100
H146        H  0.00740552  0.46818293  0.25581662     0.37800
H147        H  0.10582429  0.60570922  0.24928904     0.44000
H148        H  0.10383902  0.67278459  0.23386707     0.40400
H149        H  0.83405912  0.46356295  0.23196739     0.45300
H150        H  0.05284850  0.49201794  0.25300539     0.44000
H151        H  0.09902446  0.70502706  0.24689835     0.44200
H152        H  0.88534695  0.63191408  0.24527923     0.44500
N153        N  0.20114747  0.53838443  0.99405903    -0.02500
C154        C  0.20426309  0.55797030  0.01711155     0.00000
C155        C  0.21433194  0.59501091  0.01058577    -0.22800
C156        C  0.22679521  0.61418084  0.47995664    -0.23000
C157        C  0.21427047  0.57797572  0.47011440    -0.00100
H158        H  0.21521670  0.61613165  0.02418918     0.13700
H159        H  0.22866765  0.63780632  0.46864844     0.13800
N160        N  0.80022397  0.28695733  0.99210005    -0.02500
C161        C  0.82284275  0.30075837  0.01513039     0.00000
C162        C  0.86202024  0.31941625  0.00925102    -0.22800
C163        C  0.86579112  0.31949521  0.47954028    -0.23000
C164        C  0.82825157  0.29524182  0.47005948    -0.00100
H165        H  0.88602322  0.33618346  0.02304333     0.13700
H166        H  0.89164897  0.33743233  0.46768783     0.13800
N167        N  0.73439764  0.57457998  0.49285369    -0.02500
C168        C  0.73837766  0.56131226  0.01269610     0.00000
C169        C  0.72850515  0.52450351  0.00591688    -0.22800
C170        C  0.71842486  0.51510962  0.48093949    -0.23000
C171        C  0.72881321  0.55107027  0.47154576    -0.00100
H172        H  0.72847905  0.50339866  0.01919483     0.13700
H173        H  0.71614192  0.49185345  0.46901834     0.13800
N174        N  0.20754707  0.81094345  0.49042187    -0.02500
C175        C  0.21896855  0.78367403  0.01490254     0.00000
C176        C  0.22831613  0.75734420  0.00604670    -0.22800
C177        C  0.21623697  0.76459397  0.47445013    -0.23000
C178        C  0.20609222  0.79121376  0.46788709    -0.00100
H179        H  0.22926046  0.73589575  0.01837031     0.13700
H180        H  0.21428764  0.74240662  0.46146517     0.13800
O181        O  0.57881612  0.59938562  0.19279164    -0.74400
O182        O  0.53070429  0.58661104  0.16226204    -0.53300
C183        C  0.56505978  0.59392817  0.16859505     0.79400
O184        O  0.46049990  0.47253960  0.28557254    -0.59000
O185        O  0.47314951  0.51814717  0.31698841    -0.52000
C186        C  0.46534038  0.48439073  0.31025917     0.71400
O187        O  0.45665629  0.47289392  0.19322484    -0.73500
O188        O  0.46383625  0.51788682  0.16274465    -0.54100
C189        C  0.45820500  0.48476391  0.16872158     0.77400
O190        O  0.58755418  0.60851830  0.28306028    -0.58700
O191        O  0.54210706  0.59379809  0.31587045    -0.51800
C192        C  0.57662437  0.60399973  0.30784707     0.74000
Zr193      Zr  0.55838390  0.60261220  0.23850683     2.54700
O194        O  0.60868924  0.58630255  0.23834992    -0.79200
O195        O  0.60831731  0.67043815  0.23564237    -0.92600
Zr196      Zr  0.46323920  0.49765566  0.23979756     2.64700
O197        O  0.51021638  0.47749272  0.23578884    -0.97600
O198        O  0.40662321  0.43279654  0.24060732    -0.79700
O199        O  0.50939474  0.54981756  0.21348179    -0.83000
O200        O  0.51265323  0.54991112  0.26502646    -2.17700
O201        O  0.50196722  0.67459730  0.28598662    -0.66400
O202        O  0.49345037  0.62993671  0.31731065    -0.51000
C203        C  0.50053182  0.66345394  0.31058428     0.72400
O204        O  0.36665323  0.53584529  0.19955710    -0.59300
O205        O  0.41177958  0.55069028  0.16648545    -0.51300
C206        C  0.37707387  0.53956878  0.17476099     0.74200
O207        O  0.37461760  0.54076921  0.28909480    -0.70700
O208        O  0.42306550  0.55400154  0.31947366    -0.49400
C209        C  0.38805662  0.54489017  0.31324670     0.75500
O210        O  0.50156840  0.67494901  0.19442777    -0.66000
O211        O  0.48679493  0.62815178  0.16328398    -0.53200
C212        C  0.49743632  0.66267393  0.16993846     0.73900
Zr213      Zr  0.49271820  0.64838483  0.24022905     2.77500
O214        O  0.44490562  0.66777298  0.23701587    -0.96800
O215        O  0.54708009  0.71448549  0.24151026    -0.77600
Zr216      Zr  0.39755850  0.54406444  0.24324325     2.70100
O217        O  0.35423328  0.56913689  0.24347376    -0.78900
O218        O  0.34271896  0.47831472  0.24612340    -0.97900
Zr219      Zr  0.47413399  0.57217776  0.18884739     2.21500
Zr220      Zr  0.48105558  0.57352711  0.29241529     2.11100
O221        O  0.44669466  0.59720841  0.26774262    -2.46600
O222        O  0.44247414  0.59605839  0.21565913    -0.78700
O223        O  0.52769596  0.62649849  0.26593068    -0.70800
O224        O  0.42744890  0.51949133  0.21537266    -2.31800
O225        O  0.52487877  0.62570332  0.21292029    -2.28000
O226        O  0.43120272  0.52007106  0.26789015    -0.72600
H227        H  0.52617450  0.54082308  0.27601238     0.79400
H228        H  0.40803717  0.49910714  0.20411892     0.80500
H229        H  0.43489993  0.60689508  0.27975767     0.82700
H230        H  0.54309168  0.64527500  0.20073719     0.80300
H231        H  0.38406221  0.43621647  0.23854619     0.43300
H232        H  0.34289140  0.47054297  0.26504056     0.42300
H233        H  0.37085404  0.59603169  0.24951809     0.42000
H234        H  0.43077684  0.65976541  0.25435039     0.39900
H235        H  0.56790181  0.71334164  0.25148214     0.43100
H236        H  0.61198582  0.67606258  0.21607969     0.37800
H237        H  0.59543543  0.55966809  0.24524201     0.44000
H238        H  0.52562717  0.48598645  0.25270271     0.40400
H239        H  0.46054114  0.69612202  0.23772725     0.45300
H240        H  0.63259021  0.67176392  0.24157203     0.44000
H241        H  0.49418679  0.44922065  0.23707810     0.44200
H242        H  0.31936309  0.48057466  0.24481841     0.44500
N243        N  0.42559563  0.30460917  0.48901984    -0.02500
C244        C  0.39373125  0.29988702  0.01135116     0.00000
C245        C  0.36722686  0.29676693  0.49868379    -0.22800
C246        C  0.37004787  0.29569065  0.47127805    -0.23000
C247        C  0.40693281  0.30259658  0.46545298    -0.00100
H248        H  0.33655977  0.29511413  0.01104299     0.13700
H249        H  0.34985300  0.29661776  0.45718609     0.13800
N250        N  0.20955463  0.51889845  0.48976898    -0.02500
C251        C  0.20673630  0.49958669  0.46671995     0.00000
C252        C  0.19359482  0.46171825  0.47301171    -0.22800
C253        C  0.19139412  0.45840473  0.50055548    -0.23000
C254        C  0.20140203  0.48161078  0.01336756    -0.00100
H255        H  0.19217833  0.44030507  0.45945622     0.13700
H256        H  0.19177772  0.42345303  0.01468852     0.13800
N257        N  0.73288531  0.60884285  0.49218106    -0.02500
C258        C  0.73988177  0.63203086  0.47029298     0.00000
C259        C  0.75004726  0.66822494  0.47894695    -0.22800
C260        C  0.74514665  0.66632855  0.50627659    -0.23000
C261        C  0.73472131  0.63376012  0.01038796    -0.00100
H262        H  0.75321415  0.69137257  0.46633590     0.13700
H263        H  0.74466193  0.69196256  0.01461615     0.13800
N264        N  0.53601885  0.83610088  0.49125154    -0.02500
C265        C  0.55620210  0.83975699  0.46840921     0.00000
C266        C  0.59408792  0.85058430  0.47525257    -0.22800
C267        C  0.59619062  0.85030820  0.50284219    -0.23000
C268        C  0.55938227  0.83855843  0.51243342    -0.00100
H269        H  0.61589146  0.85181276  0.46183868     0.13700
H270        H  0.61957836  0.85077385  0.51417098     0.13800
C271        C  0.23993362  0.50567497  0.39431162    -0.04500
C272        C  0.28063383  0.53015313  0.39720546     0.09600
C273        C  0.29599224  0.55014506  0.42160020    -0.01900
C274        C  0.27100834  0.54488861  0.44327828    -0.00200
C275        C  0.23063710  0.51655011  0.44168765    -0.03800
C276        C  0.21516231  0.49833396  0.41655816     0.03200
C277        C  0.30765417  0.53354410  0.37513404     0.10100
C278        C  0.33787508  0.57526482  0.42471586     0.36000
C279        C  0.17357772  0.47163840  0.41374888     0.37300
C280        C  0.32540770  0.56608774  0.35819858    -0.04200
C281        C  0.35258764  0.57008184  0.33859733     0.03000
C282        C  0.36140175  0.54109306  0.33519843    -0.03800
C283        C  0.34267774  0.50791049  0.35142548     0.00000
C284        C  0.31643362  0.50447722  0.37168990    -0.02500
C285        C  0.31521244  0.59518768  0.36032745     0.36700
C286        C  0.34897414  0.47658859  0.34642919     0.40300
C287        C  0.37143771  0.60408771  0.32171634     0.39500
C288        C  0.29825895  0.47096394  0.38901014     0.36400
C289        C  0.22379525  0.48698204  0.36866564     0.37100
C290        C  0.28719846  0.57053724  0.46617637     0.40300
N291        N  0.38641260  0.63115480  0.30823097    -0.37800
N292        N  0.30758497  0.61885521  0.36115681    -0.39300
N293        N  0.35354668  0.45132998  0.34226614    -0.37100
N294        N  0.28360897  0.44430085  0.40290023    -0.39500
N295        N  0.37129920  0.59498435  0.42725929    -0.39300
N296        N  0.30095478  0.59214582  0.48381329    -0.36900
N297        N  0.14038970  0.45012384  0.41180004    -0.37900
N298        N  0.21104844  0.47214892  0.34814801    -0.39600
C299        C  0.30982180  0.49523079  0.11450442    -0.04500
C300        C  0.29605474  0.52057854  0.11085737     0.09600
C301        C  0.30614273  0.54996344  0.12988671    -0.01900
C302        C  0.33164294  0.55536691  0.15143997    -0.00200
C303        C  0.34684425  0.53117841  0.15416867    -0.03800
C304        C  0.33371448  0.49957018  0.13678921     0.03200
C305        C  0.27128858  0.51586315  0.08670660     0.10100
C306        C  0.29126043  0.57532940  0.12713682     0.36000
C307        C  0.34233743  0.47003216  0.14305341     0.39400
C308        C  0.23027844  0.49298156  0.08830584    -0.04200
C309        C  0.20719306  0.48215508  0.06455130     0.03000
C310        C  0.22497095  0.49515676  0.03895398    -0.03800
C311        C  0.26615730  0.51396463  0.03764289     0.00000
C312        C  0.28902507  0.52744480  0.06125090    -0.02500
C313        C  0.21217967  0.47870949  0.11436208     0.36700
C314        C  0.28536344  0.51923473  0.51255353     0.40300
C315        C  0.16588880  0.45390079  0.06639044     0.39500
C316        C  0.33122522  0.55073880  0.05934929     0.36400
C317        C  0.30030334  0.46530596  0.09487113     0.37100
C318        C  0.34283799  0.58628796  0.17056275     0.40300
N319        N  0.13308403  0.43083322  0.06820914    -0.37800
N320        N  0.19817924  0.46735501  0.13527899    -0.39300
N321        N  0.30009846  0.51458946  0.49418142    -0.37100
N322        N  0.36486275  0.56952613  0.05793817    -0.39500
N323        N  0.27997775  0.59619305  0.12580447    -0.39300
N324        N  0.35180333  0.61094616  0.18580169    -0.36900
N325        N  0.34831863  0.44594357  0.14842383    -0.37900
N326        N  0.29323746  0.44190139  0.07892949    -0.39600
C327        C  0.53256556  0.71808243  0.37785177    -0.04500
C328        C  0.51999305  0.74429914  0.37454936     0.09600
C329        C  0.50072619  0.74377728  0.35065186    -0.01900
C330        C  0.49434238  0.71757857  0.32989041    -0.00200
C331        C  0.50727122  0.69127118  0.33276600    -0.03800
C332        C  0.52610829  0.69155513  0.35725255     0.03200
C333        C  0.52470522  0.77068823  0.39712798     0.10100
C334        C  0.48617375  0.76949899  0.34779907     0.36000
C335        C  0.53866816  0.66447917  0.36182555     0.39400
C336        C  0.55353386  0.81001433  0.39604449    -0.04200
C337        C  0.55969621  0.83386732  0.41836835     0.03000
C338        C  0.53899809  0.81815023  0.44264310    -0.03800
C339        C  0.50766394  0.77926585  0.44274087     0.00000
C340        C  0.50052212  0.75591074  0.41993001    -0.02500
C341        C  0.57849266  0.82542856  0.37262137     0.36700
C342        C  0.48274063  0.76232115  0.46605479     0.40300
C343        C  0.58815452  0.87463453  0.41670828     0.39500
C344        C  0.46902003  0.71601432  0.42014799     0.36400
C345        C  0.55150658  0.71796300  0.40287483     0.37100
C346        C  0.47231097  0.71682832  0.30639533     0.40300
N347        N  0.61069480  0.90720482  0.41558019    -0.37800
N348        N  0.59868635  0.83771334  0.35404864    -0.39300
N349        N  0.46206178  0.74803079  0.48420803    -0.37100
N350        N  0.44408021  0.68416905  0.42016739    -0.39500
N351        N  0.47445442  0.78988791  0.34531311    -0.39300
N352        N  0.45444320  0.71726233  0.28816100    -0.36900
N353        N  0.54828303  0.64270074  0.36607745    -0.37900
N354        N  0.56625218  0.71775692  0.42295439    -0.39600
C355        C  0.55207392  0.80723892  0.08273485    -0.04500
C356        C  0.54014774  0.76829349  0.07912265     0.09600
C357        C  0.54244363  0.75548651  0.05322299    -0.01900
C358        C  0.55460938  0.78075214  0.03098258    -0.00200
C359        C  0.56554474  0.81976261  0.03438267    -0.03800
C360        C  0.56682687  0.83320325  0.06080273     0.03200
C361        C  0.52851315  0.74157246  0.10296538     0.10100
C362        C  0.53463666  0.71678670  0.04972217     0.36000
C363        C  0.58702669  0.87402544  0.06595681     0.39400
C364        C  0.49017763  0.70945260  0.10511856    -0.04200
C365        C  0.48006864  0.68351848  0.12683784     0.03000
C366        C  0.50734331  0.69068591  0.14759096    -0.03800
C367        C  0.54538138  0.72328286  0.14579518     0.00000
C368        C  0.55633484  0.74763285  0.12307543    -0.02500
C369        C  0.46117298  0.70246551  0.08469473     0.36700
C370        C  0.57395736  0.73080802  0.16670768     0.40300
C371        C  0.44159478  0.64919546  0.12754756     0.39500
C372        C  0.59678733  0.77791563  0.11976480     0.36400
C373        C  0.55019379  0.82062942  0.10938003     0.37100
C374        C  0.54190324  0.76062231  0.50632975     0.40300
N375        N  0.41099713  0.62164221  0.12756512    -0.37800
N376        N  0.43781750  0.69624492  0.06841817    -0.39300
N377        N  0.59668297  0.73689716  0.18345157    -0.37100
N378        N  0.62908143  0.80193743  0.11702144    -0.39500
N379        N  0.52863349  0.68605193  0.04687772    -0.39300
N380        N  0.54784627  0.75039880  0.48616365    -0.36900
N381        N  0.60394517  0.90659170  0.07038261    -0.37900
N382        N  0.54852836  0.83035658  0.13095620    -0.39600
C383        C  0.65425766  0.64280908  0.36322640    -0.04500
C384        C  0.65435613  0.60927937  0.37048335     0.09600
C385        C  0.63055558  0.57505901  0.35597021    -0.01900
C386        C  0.60606683  0.57404616  0.33507487    -0.00200
C387        C  0.60484877  0.60704348  0.32857005    -0.03800
C388        C  0.62969937  0.64173368  0.34221528     0.03200
C389        C  0.67609507  0.60933026  0.39527955     0.10100
C390        C  0.63034160  0.54043061  0.36268651     0.36000
C391        C  0.62973173  0.67612927  0.33482366     0.39400
C392        C  0.65602350  0.59727080  0.41996273    -0.04200
C393        C  0.67679717  0.60430994  0.44438521     0.03000
C394        C  0.71759474  0.61932900  0.44433152    -0.03800
C395        C  0.73769606  0.63132696  0.41951599     0.00000
C396        C  0.71703250  0.62617002  0.39508349    -0.02500
C397        C  0.61394052  0.57985967  0.42042284     0.36700
C398        C  0.77994476  0.65146770  0.41958715     0.40300
C399        C  0.65712317  0.60323233  0.46908335     0.39500
C400        C  0.73787979  0.63951137  0.36983542     0.36400
C401        C  0.67859623  0.67812597  0.37799829     0.37100
C402        C  0.58171452  0.53875466  0.32025241     0.40300
N403        N  0.64081892  0.60403826  0.48800303    -0.37800
N404        N  0.58038412  0.56574548  0.42086856    -0.39300
N405        N  0.81366843  0.66782435  0.42032824    -0.37100
N406        N  0.75428228  0.65024626  0.34957788    -0.39500
N407        N  0.62905649  0.51199571  0.36720174    -0.39300
N408        N  0.56248315  0.51073994  0.30827916    -0.36900
N409        N  0.62984455  0.70365468  0.32899724    -0.37900
N410        N  0.69811382  0.70622613  0.38984275    -0.39600
C411        C  0.63203431  0.57368724  0.12712365    -0.04500
C412        C  0.63948097  0.59769375  0.10466262     0.09600
C413        C  0.62171558  0.61970265  0.10274790    -0.01900
C414        C  0.59734900  0.61853260  0.12356051    -0.00200
C415        C  0.59055129  0.59522669  0.14648559    -0.03800
C416        C  0.60788361  0.57262669  0.14810322     0.03200
C417        C  0.66648786  0.60069598  0.08287565     0.10100
C418        C  0.62854425  0.64349713  0.07915059     0.36000
C419        C  0.60019481  0.54752699  0.17104319     0.39400
C420        C  0.65175261  0.57683345  0.06006270    -0.04200
C421        C  0.67548495  0.58445943  0.03718015     0.03000
C422        C  0.71361156  0.61762224  0.03651085    -0.03800
C423        C  0.72927192  0.63920598  0.06056333     0.00000
C424        C  0.70592614  0.63032014  0.08371747    -0.02500
C425        C  0.61143957  0.54542974  0.05981725     0.36700
C426        C  0.76931517  0.67117012  0.06149892     0.40300
C427        C  0.65986735  0.55808978  0.01462729     0.39500
C428        C  0.72187988  0.65281559  0.10812123     0.36400
C429        C  0.64868879  0.54960537  0.12835890     0.37100
C430        C  0.58044155  0.64237981  0.12168150     0.40300
N431        N  0.64341333  0.53121159  0.50339394    -0.37800
N432        N  0.57920958  0.52054806  0.05975299    -0.39300
N433        N  0.80122097  0.69669968  0.06238473    -0.37100
N434        N  0.73458680  0.67065902  0.12763065    -0.39500
N435        N  0.63406267  0.66225706  0.06020529    -0.39300
N436        N  0.56714004  0.66154650  0.11997504    -0.36900
N437        N  0.59419533  0.52758546  0.18936050    -0.37900
N438        N  0.66160808  0.53006121  0.12931098    -0.39600
C439        C  0.44163038  0.43185044  0.37881478    -0.04500
C440        C  0.44827483  0.40183363  0.37334258     0.09600
C441        C  0.46176637  0.39958680  0.34770233    -0.01900
C442        C  0.46879673  0.42711690  0.32762056    -0.00200
C443        C  0.46108375  0.45692325  0.33250548    -0.03800
C444        C  0.44832251  0.45942527  0.35879659     0.03200
C445        C  0.44233751  0.37340200  0.39503559     0.10100
C446        C  0.46814455  0.36844989  0.34189664     0.36000
C447        C  0.44177732  0.49011336  0.36577685     0.39400
C448        C  0.41050414  0.33525025  0.39391155    -0.04200
C449        C  0.40355910  0.30977956  0.41544312     0.03000
C450        C  0.42577078  0.32315033  0.43956337    -0.03800
C451        C  0.45994899  0.36036825  0.43951093     0.00000
C452        C  0.46842648  0.38491988  0.41707796    -0.02500
C453        C  0.38342186  0.32282328  0.37138388     0.36700
C454        C  0.48701079  0.37415471  0.46207337     0.40300
C455        C  0.37239316  0.26992690  0.41328494     0.39500
C456        C  0.50370481  0.42263801  0.41688047     0.36400
C457        C  0.42693248  0.43377803  0.40509411     0.37100
C458        C  0.48609882  0.42522500  0.30258010     0.40300
N459        N  0.34763668  0.23810381  0.41164456    -0.37800
N460        N  0.36161377  0.31293632  0.35351902    -0.39300
N461        N  0.50958498  0.38595517  0.47952726    -0.37100
N462        N  0.53190062  0.45263756  0.41668358    -0.39500
N463        N  0.47253888  0.34322881  0.33715878    -0.39300
N464        N  0.50040402  0.42263789  0.28317195    -0.36900
N465        N  0.43681361  0.51462769  0.37175259    -0.37900
N466        N  0.41515611  0.43515546  0.42604700    -0.39600
C467        C  0.44307343  0.39084634  0.05451458    -0.04500
C468        C  0.42889818  0.37665083  0.08060260     0.09600
C469        C  0.40376928  0.33666473  0.08408129    -0.01900
C470        C  0.39363021  0.31133207  0.06185712    -0.00200
C471        C  0.40854439  0.32562691  0.03573497    -0.03800
C472        C  0.42980787  0.36594695  0.03213250     0.03200
C473        C  0.43657148  0.40427286  0.10341255     0.10100
C474        C  0.38653463  0.32171166  0.11027684     0.36000
C475        C  0.44087590  0.38712420  0.50656686     0.39400
C476        C  0.42251445  0.42958622  0.10176400    -0.04200
C477        C  0.43281640  0.45812361  0.12158168     0.03000
C478        C  0.45248593  0.45829769  0.14560897    -0.03800
C479        C  0.46680698  0.43305068  0.14709013     0.00000
C480        C  0.45938795  0.40674376  0.12597961    -0.02500
C481        C  0.39680445  0.42600802  0.07972709     0.36700
C482        C  0.49235160  0.43628156  0.16903857     0.40300
C483        C  0.42507029  0.48845708  0.11595138     0.39500
C484        C  0.47577213  0.38246617  0.12737641     0.36400
C485        C  0.46937977  0.43166090  0.05026033     0.37100
C486        C  0.36419359  0.27122143  0.06553131     0.40300
N487        N  0.41982679  0.51309819  0.11079369    -0.37800
N488        N  0.37619439  0.42313558  0.06225493    -0.39300
N489        N  0.51335793  0.43868663  0.18605417    -0.37100
N490        N  0.48879333  0.36305257  0.12875297    -0.39500
N491        N  0.37277892  0.30975603  0.13117234    -0.39300
N492        N  0.34016237  0.23947303  0.06895579    -0.36900
N493        N  0.44125476  0.40268166  0.48690722    -0.37900
N494        N  0.49014093  0.46418224  0.04667601    -0.39600
C495        C  0.83780327  0.61570818  0.13182326    -0.04500
C496        C  0.82829156  0.59240535  0.10877969     0.09600
C497        C  0.84345063  0.56833455  0.10587152    -0.01900
C498        C  0.86699937  0.56647837  0.12625377    -0.00200
C499        C  0.87527728  0.58837397  0.15026976    -0.03800
C500        C  0.86099767  0.61362680  0.15260545     0.03200
C501        C  0.80173104  0.59205648  0.08732363     0.10100
C502        C  0.83446316  0.54507067  0.08172008     0.36000
C503        C  0.87109264  0.63864080  0.17578196     0.39400
C504        C  0.81710834  0.61783020  0.06553742    -0.04200
C505        C  0.79481282  0.61095874  0.04178410     0.03000
C506        C  0.75693906  0.57765358  0.03965028    -0.03800
C507        C  0.73983257  0.55529423  0.06318784     0.00000
C508        C  0.76234869  0.56219377  0.08675481    -0.02500
C509        C  0.85676132  0.65037458  0.06709824     0.36700
C510        C  0.69932116  0.52424431  0.06297421     0.40300
C511        C  0.81169514  0.63833313  0.01990829     0.39500
C512        C  0.74598542  0.53688690  0.10984634     0.36400
C513        C  0.82392953  0.64205998  0.13388322     0.37100
C514        C  0.88191261  0.54125858  0.12216524     0.40300
N515        N  0.82579634  0.66118615  0.00305043    -0.37800
N516        N  0.88833969  0.67643522  0.06831832    -0.39300
N517        N  0.66344963  0.49445146  0.56719235    -0.37100
N518        N  0.73325249  0.51667967  0.12828261    -0.39500
N519        N  0.82726466  0.52650155  0.06251183    -0.39300
N520        N  0.89382815  0.52135113  0.11805696    -0.36900
N521        N  0.87884751  0.65904395  0.19399723    -0.37900
N522        N  0.81306772  0.66327436  0.13526976    -0.39600
C523        C  0.83809460  0.60237475  0.35751968    -0.04500
C524        C  0.81528102  0.57009228  0.37400279     0.09600
C525        C  0.81647315  0.53645733  0.36998154    -0.01900
C526        C  0.84118393  0.53553261  0.35023376    -0.00200
C527        C  0.86421724  0.56794940  0.33384184    -0.03800
C528        C  0.86213201  0.60117716  0.33734167     0.03200
C529        C  0.79380807  0.57246958  0.39786361     0.10100
C530        C  0.79246504  0.50283011  0.38646674     0.36000
C531        C  0.88583233  0.63474374  0.32074581     0.39400
C532        C  0.75305477  0.55668706  0.39692371    -0.04200
C533        C  0.73208114  0.55166722  0.42097930     0.03000
C534        C  0.75176245  0.56347411  0.44603341    -0.03800
C535        C  0.79242594  0.57778756  0.44684008     0.00000
C536        C  0.81353252  0.58443127  0.42278538    -0.02500
C537        C  0.73267799  0.54442419  0.37132998     0.36700
C538        C  0.81129283  0.57803916  0.47192683     0.40300
C539        C  0.68983111  0.53108022  0.42063949     0.39500
C540        C  0.85553001  0.60124862  0.42380490     0.36400
C541        C  0.83760636  0.63720897  0.36157180     0.37100
C542        C  0.84224948  0.50088901  0.34655739     0.40300
N543        N  0.65611863  0.51413106  0.42152192    -0.37800
N544        N  0.71653247  0.53479103  0.35081634    -0.39300
N545        N  0.83648660  0.59460792  0.98855738    -0.37100
N546        N  0.88902751  0.61489138  0.42447701    -0.39500
N547        N  0.77314051  0.47596824  0.39951679    -0.39300
N548        N  0.84270549  0.47299949  0.34388945    -0.36900
N549        N  0.90472835  0.66149800  0.30750031    -0.37900
N550        N  0.83799139  0.66551897  0.36429263    -0.39600
C551        C  0.81121042  0.36615866  0.06312688    -0.04500
C552        C  0.81871230  0.35450729  0.08797980     0.09600
C553        C  0.81980347  0.32067082  0.08943712    -0.01900
C554        C  0.81978689  0.30207263  0.06557052    -0.00200
C555        C  0.81329746  0.31405994  0.04021929    -0.03800
C556        C  0.81044266  0.34725935  0.03920060     0.03200
C557        C  0.83853802  0.38388648  0.10961271     0.10100
C558        C  0.82551681  0.30770852  0.11537937     0.36000
C559        C  0.81591594  0.36732377  0.01390800     0.39400
C560        C  0.81720950  0.39066880  0.12886723    -0.04200
C561        C  0.83708252  0.41928725  0.14867172     0.03000
C562        C  0.87844748  0.44150396  0.14905737    -0.03800
C563        C  0.89960242  0.43467827  0.12957597     0.00000
C564        C  0.87975800  0.40608010  0.10994050    -0.02500
C565        C  0.77492966  0.36826135  0.12820739     0.36700
C566        C  0.94187335  0.45560249  0.13042266     0.40300
C567        C  0.81479509  0.42602372  0.16841901     0.39500
C568        C  0.90186494  0.39917252  0.09005262     0.36400
C569        C  0.80890789  0.40046191  0.06192901     0.37100
C570        C  0.83441627  0.27626160  0.06680539     0.40300
N571        N  0.79661047  0.43101928  0.18406730    -0.37800
N572        N  0.74117754  0.35052691  0.12767100    -0.39300
N573        N  0.97558038  0.47176566  0.13082829    -0.37100
N574        N  0.91933447  0.39344032  0.07424270    -0.39500
N575        N  0.82987358  0.29727998  0.13609561    -0.39300
N576        N  0.84784622  0.25717054  0.06806982    -0.36900
N577        N  0.82256215  0.38539521  0.99446717    -0.37900
N578        N  0.80697812  0.42774898  0.06104366    -0.39600
C579        C  0.80610729  0.33294047  0.40717470    -0.04500
C580        C  0.83690605  0.33800324  0.39078939     0.09600
C581        C  0.85586156  0.31807198  0.39698193    -0.01900
C582        C  0.84856430  0.29842501  0.42176708    -0.00200
C583        C  0.82125889  0.29770392  0.44042458    -0.03800
C584        C  0.79769504  0.31216712  0.43158597     0.03200
C585        C  0.85333962  0.36868513  0.36960041     0.10100
C586        C  0.88504097  0.32037175  0.37862836     0.36000
C587        C  0.76568954  0.30768914  0.44748491     0.39400
C588        C  0.88643372  0.40470527  0.37573652    -0.04200
C589        C  0.90356079  0.43364290  0.35590437     0.03000
C590        C  0.88617883  0.42790274  0.32989874    -0.03800
C591        C  0.85158467  0.39185113  0.32436970     0.00000
C592        C  0.83610158  0.36224424  0.34389475    -0.02500
C593        C  0.90264749  0.41214235  0.40285416     0.36700
C594        C  0.83057474  0.38486108  0.29907755     0.40300
C595        C  0.93981985  0.46873465  0.36250048     0.39500
C596        C  0.80228615  0.32492969  0.33761812     0.36400
C597        C  0.78500346  0.35170821  0.39984105     0.37100
C598        C  0.87220546  0.28230936  0.42910665     0.40300
N599        N  0.96875834  0.49656810  0.36796295    -0.37800
N600        N  0.91527228  0.41808970  0.42454259    -0.39300
N601        N  0.81313995  0.37849321  0.27913043    -0.37100
N602        N  0.77544895  0.29510426  0.33261727    -0.39500
N603        N  0.90821956  0.32235780  0.36383120    -0.39300
N604        N  0.88307248  0.26587755  0.93791486    -0.36900
N605        N  0.73873487  0.30469587  0.45814083    -0.37900
N606        N  0.76830255  0.36680504  0.39402506    -0.39600
C607        C  0.12041003  0.50770812  0.06635735    -0.04500
C608        C  0.13651660  0.53296468  0.08844199     0.09600
C609        C  0.17710996  0.55919648  0.08946511    -0.01900
C610        C  0.20067066  0.56297101  0.06719790    -0.00200
C611        C  0.18367650  0.54150125  0.04336718    -0.03800
C612        C  0.14390617  0.51155372  0.04400221     0.03200
C613        C  0.11021980  0.53443728  0.10921227     0.10100
C614        C  0.19399437  0.58401198  0.11271746     0.36000
C615        C  0.12689170  0.48382934  0.02233588     0.39400
C616        C  0.09661497  0.50895611  0.13126310    -0.04200
C617        C  0.07192698  0.51077823  0.15066342     0.03000
C618        C  0.06043781  0.53820509  0.14819618    -0.03800
C619        C  0.07199345  0.56182545  0.12485935     0.00000
C620        C  0.09762219  0.56066852  0.10600075    -0.02500
C621        C  0.10787770  0.48064064  0.13388264     0.36700
C622        C  0.05716781  0.58689716  0.11955528     0.40300
C623        C  0.05653650  0.48271432  0.17226252     0.39500
C624        C  0.11139726  0.58679258  0.08318724     0.36400
C625        C  0.07912576  0.47877866  0.06619457     0.37100
C626        C  0.24233637  0.59041487  0.06794065     0.40300
N627        N  0.04406955  0.46000352  0.18927895    -0.37800
N628        N  0.11654818  0.45780719  0.13600013    -0.39300
N629        N  0.04492616  0.60637037  0.11455642    -0.37100
N630        N  0.12267515  0.60775743  0.06508882    -0.39500
N631        N  0.20705755  0.60383439  0.13132634    -0.39300
N632        N  0.27562109  0.61216797  0.06778435    -0.36900
N633        N  0.11278049  0.46066472  0.00567187    -0.37900
N634        N  0.04619384  0.45570484  0.06614878    -0.39600
C635        C  0.12770812  0.58438309  0.36188381    -0.04500
C636        C  0.12080790  0.54942444  0.37300857     0.09600
C637        C  0.09022671  0.51437758  0.36245813    -0.01900
C638        C  0.06599989  0.51433497  0.34166162    -0.00200
C639        C  0.07215504  0.54922767  0.33130687    -0.03800
C640        C  0.10391916  0.58423543  0.34075946     0.03200
C641        C  0.14329805  0.55031557  0.39761263     0.10100
C642        C  0.08295797  0.47829530  0.37330604     0.36000
C643        C  0.11228939  0.62012097  0.32864042     0.39400
C644        C  0.12654854  0.54615936  0.42325780    -0.04200
C645        C  0.14958579  0.55472544  0.44681332     0.03000
C646        C  0.18940974  0.56578349  0.44512052    -0.03800
C647        C  0.20672541  0.57397379  0.41931639     0.00000
C648        C  0.18334529  0.56312270  0.39579706    -0.02500
C649        C  0.08616245  0.53596702  0.42524878     0.36700
C650        C  0.24855727  0.59911246  0.41698212     0.40300
C651        C  0.12087917  0.52896207  0.97074415     0.39500
C652        C  0.20064465  0.56610838  0.36964777     0.36400
C653        C  0.15840903  0.62060387  0.37292974     0.37100
C654        C  0.03466979  0.47838997  0.33075220     0.40300
N655        N  0.10330162  0.52770923  0.98954465    -0.37800
N656        N  0.05399215  0.52792310  0.42663191    -0.39300
N657        N  0.28185193  0.62043248  0.41564491    -0.37100
N658        N  0.21422497  0.56779836  0.34878251    -0.39500
N659        N  0.07626249  0.44899063  0.38161947    -0.39300
N660        N  0.00972111  0.44989519  0.32181301    -0.36900
N661        N  0.11930900  0.64881549  0.31891238    -0.37900
N662        N  0.18286706  0.64937329  0.38188222    -0.39600
C663        C  0.12929543  0.72884906  0.06019907    -0.04500
C664        C  0.14529004  0.74177398  0.08618102     0.09600
C665        C  0.18595829  0.76835358  0.08864635    -0.01900
C666        C  0.20995366  0.78187376  0.06543186    -0.00200
C667        C  0.19331946  0.77185921  0.03936317    -0.03800
C668        C  0.15314595  0.74308909  0.03707374     0.03200
C669        C  0.12038680  0.72285826  0.11081265     0.10100
C670        C  0.20320248  0.78100009  0.11518426     0.36000
C671        C  0.13744935  0.72321167  0.01169048     0.39400
C672        C  0.12716409  0.69806306  0.12678026    -0.04200
C673        C  0.10319844  0.67875791  0.14910685     0.03000
C674        C  0.07023999  0.68144285  0.15460117    -0.03800
C675        C  0.06314222  0.70600972  0.13887964     0.00000
C676        C  0.08824171  0.72691439  0.11720635    -0.02500
C677        C  0.15712887  0.69011863  0.11916570     0.36700
C678        C  0.02977658  0.70947997  0.14488979     0.40300
C679        C  0.11176779  0.65488477  0.16596252     0.39500
C680        C  0.07939376  0.75087533  0.10079425     0.36400
C681        C  0.08867739  0.69851562  0.05735344     0.37100
C682        C  0.25207033  0.80408360  0.06819399     0.40300
N683        N  0.11885661  0.63600890  0.17936104    -0.37800
N684        N  0.18079715  0.68348961  0.11305108    -0.39300
N685        N  0.00325722  0.71241678  0.14968232    -0.37100
N686        N  0.07079382  0.76901206  0.08786356    -0.39500
N687        N  0.21657562  0.79067876  0.13652214    -0.39300
N688        N  0.28576069  0.82142665  0.06971974    -0.36900
N689        N  0.11668541  0.71665759  0.49105705    -0.37900
N690        N  0.05629877  0.67436207  0.05513525    -0.39600
C691        C  0.09343485  0.74126860  0.35499195    -0.04500
C692        C  0.10288243  0.72753689  0.37803151     0.09600
C693        C  0.08549371  0.68775620  0.38198839    -0.01900
C694        C  0.05995975  0.66164830  0.36241419    -0.00200
C695        C  0.05209689  0.67522107  0.33817465    -0.03800
C696        C  0.06788049  0.71533956  0.33524918     0.03200
C697        C  0.13239623  0.75452741  0.39798914     0.10100
C698        C  0.09514281  0.67372138  0.40596487     0.36000
C699        C  0.05750845  0.73037836  0.31228174     0.39400
C700        C  0.12041450  0.76566256  0.42101661    -0.04200
C701        C  0.14600343  0.78214196  0.44322686     0.03000
C702        C  0.18374827  0.78703399  0.44246137    -0.03800
C703        C  0.19716593  0.78075840  0.41774886     0.00000
C704        C  0.17151306  0.76454181  0.39562983    -0.02500
C705        C  0.08102814  0.75842654  0.42222787     0.36700
C706        C  0.23702693  0.78961611  0.41532398     0.40300
C707        C  0.13211947  0.79188390  0.46701633     0.39500
C708        C  0.18464655  0.75622408  0.37081179     0.36400
C709        C  0.11094029  0.78227004  0.35137744     0.37100
C710        C  0.04325093  0.62099440  0.36730315     0.40300
N711        N  0.12042592  0.79957751  0.48573010    -0.37800
N712        N  0.04966460  0.75280467  0.42313013    -0.39300
N713        N  0.26878748  0.79658462  0.41336094    -0.37100
N714        N  0.19494799  0.74961674  0.35091995    -0.39500
N715        N  0.10300104  0.66257661  0.42499296    -0.39300
N716        N  0.03012088  0.58874599  0.37179115    -0.36900
N717        N  0.04953739  0.74296119  0.29415072    -0.37900
N718        N  0.12509361  0.81500640  0.34855057    -0.39600
C719        C  0.70203476  0.24109677  0.07242341    -0.04500
C720        C  0.69919108  0.21181914  0.08915119     0.09600
C721        C  0.72297149  0.19667389  0.08406982    -0.01900
C722        C  0.74487945  0.20639494  0.06015749    -0.00200
C723        C  0.74248905  0.23082747  0.04072655    -0.03800
C724        C  0.72311253  0.25024050  0.04802558     0.03200
C725        C  0.66791182  0.19351841  0.11004600     0.10100
C726        C  0.72280896  0.16915113  0.10274402     0.36000
C727        C  0.72300431  0.27839797  0.03038472     0.39400
C728        C  0.63391576  0.15776043  0.10459486    -0.04200
C729        C  0.60530249  0.13874742  0.12466467     0.03000
C730        C  0.60906737  0.15657594  0.14997338    -0.03800
C731        C  0.64251030  0.19362288  0.15463795     0.00000
C732        C  0.67238470  0.21104278  0.13522184    -0.02500
C733        C  0.62858729  0.14030578  0.07820977     0.36700
C734        C  0.64615390  0.21506700  0.17885589     0.40300
C735        C  0.57291016  0.10026996  0.11922746     0.39500
C736        C  0.70832314  0.24666574  0.14136422     0.36400
C737        C  0.68177993  0.26055327  0.07982327     0.37100
C738        C  0.76747735  0.18868146  0.05459041     0.40300
N739        N  0.54734124  0.06957015  0.11457246    -0.37800
N740        N  0.62431964  0.12649086  0.05714779    -0.39300
N741        N  0.64979183  0.23307578  0.19782791    -0.37100
N742        N  0.73716625  0.27482412  0.14639141    -0.39500
N743        N  0.72237580  0.14712263  0.11770600    -0.39300
N744        N  0.78549178  0.17453791  0.05026864    -0.36900
N745        N  0.71857229  0.28610341  0.51046560    -0.37900
N746        N  0.66603950  0.27638927  0.08597850    -0.39600
C747        C  0.64669493  0.14845900  0.37005173    -0.04500
C748        C  0.66857389  0.18867994  0.37325888     0.09600
C749        C  0.66184032  0.21201022  0.35585328    -0.01900
C750        C  0.63358723  0.19520078  0.33507357    -0.00200
C751        C  0.61117414  0.15479995  0.33214139    -0.03800
C752        C  0.61794898  0.13159420  0.34975901     0.03200
C753        C  0.69596349  0.20548271  0.39672382     0.10100
C754        C  0.68314116  0.25315550  0.36000962     0.36000
C755        C  0.59571933  0.09020745  0.34685791     0.39400
C756        C  0.73260743  0.20863337  0.39602422    -0.04200
C757        C  0.75352680  0.21367607  0.42016551     0.03000
C758        C  0.73990428  0.21946586  0.44494665    -0.03800
C759        C  0.70272933  0.21572145  0.44544290     0.00000
C760        C  0.68169822  0.21028520  0.42132614    -0.02500
C761        C  0.74749251  0.20405481  0.37063512     0.36700
C762        C  0.68236037  0.20969136  0.47072503     0.40300
C763        C  0.78531840  0.20651302  0.42004660     0.39500
C764        C  0.64353679  0.20620599  0.42208154     0.36400
C765        C  0.65320142  0.12426061  0.38813239     0.37100
C766        C  0.62651955  0.21949340  0.31757471     0.40300
N767        N  0.80954882  0.19917762  0.41987509    -0.37800
N768        N  0.75954901  0.20057577  0.35039949    -0.39300
N769        N  0.66413808  0.20268118  0.49020800    -0.37100
N770        N  0.61311830  0.20292638  0.42257604    -0.39500
N771        N  0.69995500  0.28592735  0.36360635    -0.39300
N772        N  0.62117390  0.23930094  0.30383958    -0.36900
N773        N  0.57811339  0.05717966  0.34475335    -0.37900
N774        N  0.65838236  0.10494596  0.40251888    -0.39600
C775        C  0.48074937  0.20373409  0.10934019    -0.04500
C776        C  0.45128809  0.21267308  0.11148037     0.09600
C777        C  0.42539658  0.19828933  0.13344901    -0.01900
C778        C  0.42820163  0.17428081  0.15280031    -0.00200
C779        C  0.45802911  0.16554444  0.15096647    -0.03800
C780        C  0.48429938  0.18056597  0.12899328     0.03200
C781        C  0.44745364  0.23682291  0.09018366     0.10100
C782        C  0.39616189  0.20876802  0.13623466     0.36000
C783        C  0.51592592  0.17335668  0.12674850     0.39400
C784        C  0.41864953  0.21957443  0.06986216    -0.04200
C785        C  0.41982718  0.24110324  0.04709305     0.03000
C786        C  0.45065219  0.27965306  0.04414904    -0.03800
C787        C  0.47479619  0.29824239  0.06676542     0.00000
C788        C  0.47390686  0.27677126  0.08942619    -0.02500
C789        C  0.38885490  0.17924296  0.07186571     0.36700
C790        C  0.50238452  0.33921850  0.06570762     0.40300
C791        C  0.38833621  0.22389027  0.02758684     0.39500
C792        C  0.50180641  0.29518064  0.11119694     0.36400
C793        C  0.50784078  0.21882229  0.08693420     0.37100
C794        C  0.39912800  0.15731353  0.17386012     0.40300
N795        N  0.37298179  0.21574145  0.50474370    -0.37800
N796        N  0.36507787  0.14709103  0.07366762    -0.39300
N797        N  0.52416824  0.37196952  0.06478091    -0.37100
N798        N  0.52412452  0.30958989  0.12860132    -0.39500
N799        N  0.37306556  0.21745056  0.13832087    -0.39300
N800        N  0.37542633  0.14368860  0.19035374    -0.36900
N801        N  0.54135105  0.16797510  0.12446537    -0.37900
N802        N  0.52961683  0.23097459  0.06918314    -0.39600
C803        C  0.43036302  0.19634018  0.35372683    -0.04500
C804        C  0.45780572  0.21087582  0.37492630     0.09600
C805        C  0.48688065  0.20132936  0.37630609    -0.01900
C806        C  0.48877225  0.17758597  0.35654593    -0.00200
C807        C  0.46177372  0.16335230  0.33479300    -0.03800
C808        C  0.43215857  0.17256838  0.33377993     0.03200
C809        C  0.45548031  0.23453972  0.39708345     0.10100
C810        C  0.51513914  0.21626966  0.39824207     0.36000
C811        C  0.40235602  0.15635416  0.31295315     0.39400
C812        C  0.43438794  0.21595883  0.42049466    -0.04200
C813        C  0.44275361  0.23638191  0.44494730     0.03000
C814        C  0.46712931  0.27693205  0.44537387    -0.03800
C815        C  0.48743081  0.29565634  0.42138297     0.00000
C816        C  0.48145847  0.27454889  0.39742889    -0.02500
C817        C  0.40740329  0.17474224  0.42010764     0.36700
C818        C  0.51882581  0.33549100  0.42212138     0.40300
C819        C  0.43543586  0.21453006  0.46955066     0.39500
C820        C  0.50480909  0.29334816  0.37374738     0.36400
C821        C  0.40028945  0.20591809  0.35260117     0.37100
C822        C  0.51917544  0.16858953  0.35872944     0.40300
N823        N  0.43131864  0.19558774  0.48814194    -0.37800
N824        N  0.38581463  0.14192420  0.41969189    -0.39300
N825        N  0.54448078  0.36702835  0.42241204    -0.37100
N826        N  0.52376518  0.30820439  0.35495771    -0.39500
N827        N  0.53762282  0.22843425  0.41572149    -0.39300
N828        N  0.54349313  0.16160076  0.36121457    -0.36900
N829        N  0.37822182  0.14339955  0.29656065    -0.37900
N830        N  0.37641618  0.21373837  0.35183263    -0.39600
C831        C  0.30303904  0.91152579  0.06107643    -0.04500
C832        C  0.28499930  0.90492646  0.08645568     0.09600
C833        C  0.24413945  0.88048555  0.08825963    -0.01900
C834        C  0.22153790  0.86337619  0.06471020    -0.00200
C835        C  0.23954008  0.86934641  0.03923676    -0.03800
C836        C  0.28035622  0.89568908  0.03753209     0.03200
C837        C  0.30877519  0.92866009  0.11012543     0.10100
C838        C  0.22527295  0.87419611  0.11418840     0.36000
C839        C  0.29809478  0.91305188  0.01193655     0.39400
C840        C  0.31936132  0.96751898  0.11184761    -0.04200
C841        C  0.34608679  0.99185246  0.13173439     0.03000
C842        C  0.36150008  0.97722731  0.15058697    -0.03800
C843        C  0.35053191  0.93830336  0.14916436     0.00000
C844        C  0.32414841  0.91407347  0.12909817    -0.02500
C845        C  0.30290538  0.98250788  0.09288930     0.36700
C846        C  0.36831591  0.92375431  0.16738551     0.40300
C847        C  0.35812359  0.03204361  0.13261574     0.39500
C848        C  0.31356561  0.87437420  0.12784106     0.36400
C849        C  0.34500957  0.93711360  0.05900277     0.37100
C850        C  0.17941736  0.84197481  0.06620973     0.40300
N851        N  0.36802786  0.06418933  0.13323450    -0.37800
N852        N  0.28963437  0.99432651  0.07776543    -0.39300
N853        N  0.38283107  0.91230151  0.18171844    -0.37100
N854        N  0.30567549  0.84280409  0.12755391    -0.39500
N855        N  0.21021910  0.86899310  0.13492268    -0.39300
N856        N  0.14573761  0.82522437  0.06684233    -0.36900
N857        N  0.30684226  0.93914432  0.48970349    -0.37900
N858        N  0.37842987  0.95761292  0.05739332    -0.39600
C859        C  0.24466437  0.89965970  0.39599520    -0.04500
C860        C  0.28306311  0.90702756  0.39637010     0.09600
C861        C  0.29552532  0.89379615  0.41818095    -0.01900
C862        C  0.27136037  0.87704629  0.44093144    -0.00200
C863        C  0.23407241  0.87321104  0.44189703    -0.03800
C864        C  0.21991143  0.88183329  0.41827146     0.03200
C865        C  0.31117714  0.93067639  0.37453705     0.10100
C866        C  0.33411500  0.89899755  0.41758659     0.36000
C867        C  0.18000821  0.87327284  0.41707992     0.39400
C868        C  0.33175760  0.97107685  0.37616167    -0.04200
C869        C  0.35774420  0.99366894  0.35548655     0.03000
C870        C  0.36421295  0.97600733  0.33328364    -0.03800
C871        C  0.34431688  0.93543055  0.33212917     0.00000
C872        C  0.31774383  0.91292907  0.35259503    -0.02500
C873        C  0.32655365  0.98936486  0.39944195     0.36700
C874        C  0.35216296  0.91667065  0.31043835     0.40300
C875        C  0.37688792  0.03511321  0.35674164     0.39500
C876        C  0.29750469  0.87142552  0.35141435     0.36400
C877        C  0.23134040  0.91231085  0.37322443     0.37100
C878        C  0.28614361  0.86523476  0.46329510     0.40300
N879        N  0.39201557  0.06815329  0.35773012    -0.37800
N880        N  0.32254604  0.00384177  0.41813991    -0.39300
N881        N  0.35841007  0.90150960  0.29326041    -0.37100
N882        N  0.28139323  0.83830651  0.35067122    -0.39500
N883        N  0.36484526  0.90304617  0.41694918    -0.39300
N884        N  0.29869539  0.85591035  0.48075658    -0.36900
N885        N  0.14822326  0.86653045  0.41610319    -0.37900
N886        N  0.22083010  0.92274643  0.35518667    -0.39600
C887        C  0.53720488  0.92943733  0.06046359    -0.04500
C888        C  0.51322738  0.91017278  0.08275581     0.09600
C889        C  0.49134435  0.86972349  0.08290245    -0.01900
C890        C  0.49132277  0.84882609  0.06016996    -0.00200
C891        C  0.51337576  0.86803131  0.03689739    -0.03800
C892        C  0.53733210  0.90872755  0.03766531     0.03200
C893        C  0.50952697  0.93281481  0.10529168     0.10100
C894        C  0.46790457  0.84955090  0.10621946     0.36000
C895        C  0.56168959  0.93023570  0.01508370     0.39400
C896        C  0.48604767  0.94889321  0.10178163    -0.04200
C897        C  0.48302452  0.97102554  0.12248684     0.03000
C898        C  0.50391531  0.97783482  0.14720497    -0.03800
C899        C  0.52812194  0.96208806  0.15025945     0.00000
C900        C  0.53067568  0.93971731  0.12951666    -0.02500
C901        C  0.46520956  0.94289205  0.07648358     0.36700
C902        C  0.55203663  0.96999210  0.17422120     0.40300
C903        C  0.45789191  0.98624562  0.11795615     0.39500
C904        C  0.55620909  0.92473147  0.13277204     0.36400
C905        C  0.56142886  0.97098649  0.06090684     0.37100
C906        C  0.46768293  0.80732132  0.06048827     0.40300
N907        N  0.43801020  0.99841709  0.11367808    -0.37800
N908        N  0.44893515  0.93824125  0.05619013    -0.39300
N909        N  0.57135145  0.97603108  0.19317755    -0.37100
N910        N  0.57690669  0.91317013  0.13550399    -0.39500
N911        N  0.44925457  0.83329136  0.12482506    -0.39300
N912        N  0.44848722  0.77422422  0.06045254    -0.36900
N913        N  0.58325577  0.92492006  0.50399475    -0.37900
N914        N  0.58070368  0.00409943  0.06132465    -0.39600
C915        C  0.51894982  0.92571974  0.34936122    -0.04500
C916        C  0.50114750  0.92281758  0.37436323     0.09600
C917        C  0.48340885  0.94444552  0.37875760    -0.01900
C918        C  0.48245281  0.96798248  0.35820154    -0.00200
C919        C  0.49983941  0.97085626  0.33265005    -0.03800
C920        C  0.51857205  0.94963766  0.32866813     0.03200
C921        C  0.50157103  0.89798426  0.39677353     0.10100
C922        C  0.46659578  0.94300532  0.40494059     0.36000
C923        C  0.53899207  0.95323584  0.30376494     0.39400
C924        C  0.52381127  0.91558385  0.42012124    -0.04200
C925        C  0.51349164  0.89540320  0.44467295     0.03000
C926        C  0.48957490  0.85494930  0.44498295    -0.03800
C927        C  0.46969463  0.83634635  0.42076164     0.00000
C928        C  0.47413504  0.85814543  0.39724148    -0.02500
C929        C  0.55399735  0.95589848  0.41968974     0.36700
C930        C  0.44118780  0.79553762  0.42082321     0.40300
C931        C  0.51607788  0.91703941  0.46842975     0.39500
C932        C  0.44793723  0.84042922  0.37449721     0.36400
C933        C  0.53871798  0.90484018  0.34531641     0.37100
C934        C  0.46299870  0.98877852  0.36391390     0.40300
N935        N  0.45545674  0.90277113  0.98787941    -0.37800
N936        N  0.57834655  0.98796254  0.41931153    -0.39300
N937        N  0.41817380  0.76303468  0.42078790    -0.37100
N938        N  0.42665396  0.82656108  0.35647930    -0.39500
N939        N  0.45391010  0.94229207  0.42598365    -0.39300
N940        N  0.44770195  0.00534174  0.36921281    -0.36900
N941        N  0.55540950  0.95591130  0.28398662    -0.37900
N942        N  0.55455858  0.88822226  0.34222824    -0.39600
N943        N  0.50162914  0.83830504  0.49261676    -0.02500
C944        C  0.48173966  0.83547372  0.51553495     0.00000
C945        C  0.44371634  0.82437389  0.50881629    -0.22800
C946        C  0.47233550  0.83267942  0.97307531    -0.23000
C947        C  0.51178309  0.85668824  0.96803839    -0.00100
H948        H  0.42204824  0.82344228  0.52222539     0.13700
H949        H  0.44870395  0.82792208  0.95979399     0.13800
N950        N  0.22011714  0.83928533  0.99262415    -0.02500
C951        C  0.20960871  0.86691086  0.51220028     0.00000
C952        C  0.20045228  0.89338463  0.50325784    -0.22800
C953        C  0.20822482  0.88402471  0.97726705    -0.23000
C954        C  0.21901526  0.85814348  0.97007200    -0.00100
H955        H  0.19963235  0.91485582  0.51550388     0.13700
H956        H  0.20826901  0.90553917  0.96443720     0.13800
O957        O  0.37868757  0.98756658  0.78698649    -0.74400
O958        O  0.42551174  0.02396447  0.81813664    -0.53300
C959        C  0.39139968  0.99581607  0.81147797     0.79400
O960        O  0.50275787  0.99359123  0.69322434    -0.59000
O961        O  0.49172952  0.02856967  0.66256026    -0.52000
C962        C  0.49893248  0.00224122  0.66877482     0.71400
O963        O  0.50913288  0.99521270  0.78430680    -0.73500
O964        O  0.50126234  0.03108478  0.81610742    -0.54100
C965        C  0.50863263  0.00523866  0.80883182     0.77400
O966        O  0.37381861  0.99103240  0.69647734    -0.58700
O967        O  0.41861713  0.02790892  0.66440912    -0.51800
C968        C  0.38474951  0.00050084  0.67187845     0.74000
Zr969      Zr  0.40130905  0.01308164  0.74146898     2.54700
O970        O  0.35961094  0.94367497  0.73915596    -0.79200
O971        O  0.34507405  0.02057321  0.74418670    -0.92600
Zr972      Zr  0.50178660  0.01539515  0.73926438     2.64700
O973        O  0.46889321  0.94578255  0.74137660    -0.97600
O974        O  0.56689355  0.02507600  0.73685836    -0.79700
O975        O  0.45215516  0.01351008  0.76634542    -0.83000
O976        O  0.45022317  0.01359494  0.71445742    -2.17700
O977        O  0.45540534  0.14855282  0.69518575    -0.66400
O978        O  0.46417810  0.11350225  0.66347105    -0.51000
C979        C  0.45759612  0.13995879  0.67047488     0.72400
O980        O  0.58784251  0.14963494  0.78464803    -0.59300
O981        O  0.54127020  0.11660567  0.81637827    -0.51300
C982        C  0.57627898  0.14205866  0.80933609     0.74200
O983        O  0.58634638  0.14506683  0.69392441    -0.70700
O984        O  0.53845636  0.11198286  0.66275247    -0.49400
C985        C  0.57421260  0.13615870  0.66939794     0.75500
O986        O  0.45679791  0.14800396  0.78631736    -0.66000
O987        O  0.46553313  0.11198856  0.81742884    -0.53200
C988        C  0.45904023  0.13881650  0.81088323     0.73900
Zr989      Zr  0.45896078  0.12633812  0.74071205     2.77500
O990        O  0.48905472  0.19564192  0.74316219    -0.96800
O991        O  0.39328109  0.11535169  0.73939790    -0.77600
Zr992      Zr  0.55950714  0.12897047  0.73949403     2.70100
O993        O  0.58899542  0.19810771  0.73762578    -0.78900
O994        O  0.62169280  0.13192043  0.74014200    -0.97900
Zr995      Zr  0.48201640  0.07097381  0.79231743     2.21500
Zr996      Zr  0.47892029  0.07113308  0.68831155     2.11100
O997        O  0.50928720  0.12889081  0.71401364    -2.46600
O998        O  0.51029700  0.12822002  0.76618142    -0.78700
O999        O  0.42847251  0.06945680  0.71456086    -0.70800
O1000       O  0.53204017  0.07218143  0.76570219    -2.31800
O1001       O  0.43021250  0.06983698  0.76766576    -2.28000
O1002       O  0.53051207  0.07224355  0.71308037    -0.72600
H1003       H  0.43824941  0.99118017  0.70300733     0.79400
H1004       H  0.55207136  0.07285728  0.77697533     0.80500
H1005       H  0.52076400  0.15114131  0.70243346     0.82700
H1006       H  0.41111445  0.06918473  0.77979883     0.80300
H1007       H  0.57661478  0.02986464  0.75569424     0.43300
H1008       H  0.61885101  0.11310736  0.72637217     0.42300
H1009       H  0.56901516  0.20264857  0.74527152     0.42000
H1010       H  0.50874125  0.20584019  0.72861833     0.39900
H1011       H  0.38125055  0.10217297  0.75657227     0.43100
H1012       H  0.34060574  0.02128544  0.76373861     0.37800
H1013       H  0.37749021  0.93478516  0.73422715     0.44000
H1014       H  0.44581348  0.93648248  0.72946317     0.40400
H1015       H  0.46851554  0.20044140  0.73684898     0.45300
H1016       H  0.32284682  0.99562410  0.73803929     0.44000
H1017       H  0.48627954  0.93942873  0.73164343     0.44200
H1018       H  0.64057443  0.15722563  0.73226796     0.44500
N1019       N  0.44781163  0.29238473  0.99352168    -0.02500
C1020       C  0.46995612  0.29067813  0.97302505     0.00000
C1021       C  0.50432089  0.29587575  0.98339793    -0.22800
C1022       C  0.50278684  0.29860189  0.01070850    -0.23000
C1023       C  0.46739121  0.29493100  0.01682014    -0.00100
H1024       H  0.52597039  0.29292885  0.97257813     0.13700
H1025       H  0.53244768  0.30530987  0.52441317     0.13800
N1026       N  0.76291062  0.25162607  0.99090539    -0.02500
C1027       C  0.74872576  0.22873758  0.96818860     0.00000
C1028       C  0.72969127  0.19042042  0.97477591    -0.22800
C1029       C  0.74690402  0.18221897  0.50666140    -0.23000
C1030       C  0.75885631  0.21931390  0.51445619    -0.00100
H1031       H  0.71285607  0.16644106  0.96128903     0.13700
H1032       H  0.73351530  0.15679005  0.51917353     0.13800
O1033       O  0.05657635  0.54054072  0.78367525    -0.74400
O1034       O  0.02039203  0.54815386  0.81573703    -0.53300
C1035       C  0.04845572  0.54359532  0.80824525     0.79400
O1036       O  0.05534989  0.66420446  0.69738113    -0.59000
O1037       O  0.01971432  0.61953346  0.66500330    -0.52000
C1038       C  0.04760926  0.65274791  0.67273052     0.71400
O1039       O  0.05159395  0.66014419  0.78811355    -0.73500
O1040       O  0.01210292  0.61422865  0.81812708    -0.54100
C1041       C  0.04094141  0.64792095  0.81239781     0.77400
O1042       O  0.05214982  0.53965248  0.69313790    -0.58700
O1043       O  0.01429204  0.54748953  0.66265930    -0.51800
C1044       C  0.04225198  0.54220548  0.66876978     0.74000
Zr1045     Zr  0.03052685  0.54038934  0.73915909     2.54700
O1046       O  0.10129932  0.57209984  0.73743454    -0.79200
O1047       O  0.02074354  0.47643560  0.74075421    -0.92600
Zr1048     Zr  0.02987771  0.63750409  0.74203033     2.64700
O1049       O  0.10076910  0.67583833  0.74518779    -0.97600
O1050       O  0.02372150  0.69372545  0.74075518    -0.79700
O1051       O  0.02995151  0.58762810  0.76654596    -0.83000
O1052       O  0.03101803  0.59042083  0.71491336    -2.17700
O1053       O  0.89471005  0.45617780  0.69331474    -0.66400
O1054       O  0.93028700  0.50355852  0.66273407    -0.51000
C1055       C  0.90406212  0.46892114  0.66908129     0.72400
O1056       O  0.88928953  0.57518855  0.78594534    -0.59300
O1057       O  0.92315564  0.56299535  0.81751562    -0.51300
C1058       C  0.89623025  0.56965368  0.81040471     0.74200
O1059       O  0.89138891  0.58011497  0.69538619    -0.70700
O1060       O  0.93001004  0.57612545  0.66372927    -0.49400
C1061       C  0.90133764  0.57983860  0.67072519     0.75500
O1062       O  0.90131620  0.44996843  0.78296229    -0.66000
O1063       O  0.93130744  0.49519316  0.81555829    -0.53200
C1064       C  0.90914795  0.46007924  0.80784927     0.73900
Zr1065     Zr  0.91509872  0.48087040  0.73887552     2.77500
O1066       O  0.84467922  0.45078642  0.74256258    -0.96800
O1067       O  0.91088421  0.41957615  0.73368858    -0.77600
Zr1068     Zr  0.91500230  0.57854611  0.74082473     2.70100
O1069       O  0.84584000  0.55668194  0.74070613    -0.78900
O1070       O  0.93147045  0.64486117  0.74285970    -0.97900
Zr1071     Zr  0.97140203  0.55624898  0.79226332     2.21500
Zr1072     Zr  0.97263701  0.56131261  0.68862553     2.11100
O1073       O  0.91387768  0.52993196  0.71403197    -2.46600
O1074       O  0.91329074  0.52776833  0.76578393    -0.78700
O1075       O  0.97287353  0.51082810  0.71261902    -0.70800
O1076       O  0.97187594  0.60722823  0.76811814    -2.31800
O1077       O  0.97301084  0.50885288  0.76528211    -2.28000
O1078       O  0.97268732  0.61019497  0.71472766    -0.72600
H1079       H  0.05395232  0.60227619  0.70374569     0.79400
H1080       H  0.97137603  0.62535014  0.78032710     0.80500
H1081       H  0.89124423  0.51845405  0.70236493     0.82700
H1082       H  0.97414920  0.48994294  0.77631473     0.80300
H1083       H  0.01613004  0.69593533  0.75930669     0.43300
H1084       H  0.94012432  0.65492695  0.72439331     0.42300
H1085       H  0.83275443  0.52951808  0.74642265     0.42000
H1086       H  0.83841148  0.46771216  0.73224600     0.39900
H1087       H  0.93499599  0.42343688  0.74228665     0.43100
H1088       H  0.04741249  0.48079121  0.74051489     0.37800
H1089       H  0.10995205  0.59708165  0.72866341     0.44000
H1090       H  0.11005157  0.66454402  0.73172818     0.40400
H1091       H  0.83390137  0.42725834  0.73149231     0.45300
H1092       H  0.00943640  0.46513374  0.72293114     0.44000
H1093       H  0.10799873  0.70116185  0.73763931     0.44200
H1094       H  0.90605645  0.64306981  0.74485751     0.44500
N1095       N  0.21017778  0.55422688  0.49114773    -0.02500
C1096       C  0.21398935  0.57405368  0.51404467     0.00000
C1097       C  0.22628039  0.61166954  0.50750844    -0.22800
C1098       C  0.21459996  0.59758610  0.98311820    -0.23000
C1099       C  0.20447921  0.56209555  0.97314528    -0.00100
H1100       H  0.22797523  0.63325315  0.52102447     0.13700
H1101       H  0.21566188  0.62084559  0.97182466     0.13800
N1102       N  0.80200858  0.28105782  0.49116206    -0.02500
C1103       C  0.82505822  0.29940257  0.51335311     0.00000
C1104       C  0.86380423  0.32165816  0.50656906    -0.22800
C1105       C  0.86492175  0.31984472  0.98213686    -0.23000
C1106       C  0.82742921  0.30018915  0.97175561    -0.00100
H1107       H  0.88749833  0.34162739  0.51955220     0.13700
H1108       H  0.89182763  0.33630739  0.97099565     0.13800
N1109       N  0.73967762  0.58085748  0.98987110    -0.02500
C1110       C  0.73296549  0.55459322  0.51541165     0.00000
C1111       C  0.72165684  0.51746513  0.50840101    -0.22800
C1112       C  0.72590239  0.52189416  0.97843836    -0.23000
C1113       C  0.73515379  0.55738335  0.96873770    -0.00100
H1114       H  0.72131556  0.49595095  0.52140276     0.13700
H1115       H  0.72451676  0.49885362  0.96676309     0.13800
N1116       N  0.21472198  0.80174300  0.99300409    -0.02500
C1117       C  0.21315277  0.79280193  0.51164051     0.00000
C1118       C  0.22160352  0.76626989  0.50180914    -0.22800
C1119       C  0.22472085  0.75560719  0.97851877    -0.23000
C1120       C  0.21468239  0.78196080  0.97086011    -0.00100
H1121       H  0.22325368  0.74477726  0.51359483     0.13700
H1122       H  0.22359235  0.73334616  0.96605082     0.13800
O1123       O  0.57320499  0.59342219  0.69458751    -0.74400
O1124       O  0.52544329  0.57987559  0.66362898    -0.53300
C1125       C  0.55989940  0.58779065  0.67032177     0.79400
O1126       O  0.45477916  0.46621334  0.78657302    -0.59000
O1127       O  0.46624901  0.51183979  0.81777526    -0.52000
C1128       C  0.45902546  0.47824051  0.81116652     0.71400
O1129       O  0.45257125  0.46667785  0.69454185    -0.73500
O1130       O  0.45882887  0.51115482  0.66388732    -0.54100
C1131       C  0.45409147  0.47845058  0.67004632     0.77400
O1132       O  0.58094560  0.60221241  0.78361412    -0.58700
O1133       O  0.53570673  0.58716788  0.81660912    -0.51800
C1134       C  0.57024376  0.59753518  0.80837230     0.74000
Zr1135     Zr  0.55159769  0.59661906  0.73959879     2.54700
O1136       O  0.60324126  0.58212927  0.74023671    -0.79200
O1137       O  0.60048419  0.66466353  0.73617913    -0.92600
Zr1138     Zr  0.45744380  0.49119758  0.74084188     2.64700
O1139       O  0.50424736  0.47070789  0.73772999    -0.97600
O1140       O  0.40040573  0.42658792  0.74151168    -0.79700
O1141       O  0.50351856  0.54343474  0.71453623    -0.83000
O1142       O  0.50629549  0.54377496  0.76612711    -2.17700
O1143       O  0.49669256  0.66862716  0.78638589    -0.66400
O1144       O  0.48640269  0.62374612  0.81799437    -0.51000
C1145       C  0.49468974  0.65762851  0.81110411     0.72400
O1146       O  0.36147632  0.53212750  0.69932669    -0.59300
O1147       O  0.40644826  0.54521418  0.66648538    -0.51300
C1148       C  0.37207004  0.53576674  0.67455167     0.74200
O1149       O  0.36631860  0.52987182  0.78900487    -0.70700
O1150       O  0.41549950  0.54695091  0.81962202    -0.49400
C1151       C  0.37984978  0.53527273  0.81320277     0.75500
O1152       O  0.49341163  0.66698727  0.69451789    -0.66000
O1153       O  0.48086915  0.62066888  0.66348460    -0.53200
C1154       C  0.49011139  0.65480133  0.67003328     0.73900
Zr1155     Zr  0.48466915  0.64116394  0.74073817     2.77500
O1156       O  0.43269047  0.65516274  0.73977417    -0.96800
O1157       O  0.53355365  0.70935700  0.73999084    -0.77600
Zr1158     Zr  0.39072171  0.53624706  0.74326058     2.70100
O1159       O  0.34551349  0.55895162  0.74587125    -0.78900
O1160       O  0.33757663  0.46952031  0.74268860    -0.97900
Zr1161     Zr  0.46816927  0.56529168  0.68951946     2.21500
Zr1162     Zr  0.47426876  0.56719834  0.79322944     2.11100
O1163       O  0.43903291  0.58965250  0.76819558    -2.46600
O1164       O  0.43549903  0.58851782  0.71588859    -0.78700
O1165       O  0.52049703  0.62039820  0.76672328    -0.70800
O1166       O  0.42142641  0.51223062  0.71572894    -2.31800
O1167       O  0.51802441  0.61930842  0.71377770    -2.28000
O1168       O  0.42497220  0.51345875  0.76853456    -0.72600
H1169       H  0.51989928  0.53489750  0.77715453     0.79400
H1170       H  0.40232125  0.49184538  0.70433602     0.80500
H1171       H  0.42682169  0.59885324  0.78014714     0.82700
H1172       H  0.53636021  0.63905045  0.70174335     0.80300
H1173       H  0.37814280  0.43032026  0.74398945     0.43300
H1174       H  0.33319223  0.46168058  0.76188347     0.42300
H1175       H  0.36233650  0.58699381  0.74843645     0.42000
H1176       H  0.42393683  0.65245749  0.75870291     0.39900
H1177       H  0.55861201  0.71046386  0.73777101     0.43100
H1178       H  0.62565386  0.66606097  0.73886721     0.37800
H1179       H  0.58997325  0.55480371  0.74558446     0.44000
H1180       H  0.52048407  0.48075513  0.75421274     0.40400
H1181       H  0.44609036  0.68298717  0.73599495     0.45300
H1182       H  0.59715126  0.67608306  0.75276678     0.44000
H1183       H  0.48836217  0.44259840  0.74026371     0.44200
H1184       H  0.31432493  0.47056024  0.73737291     0.44500
N1185       N  0.41669481  0.29970291  0.99093438    -0.02500
C1186       C  0.40240248  0.30452356  0.50931889     0.00000
C1187       C  0.35875189  0.29267068  0.00054671    -0.22800
C1188       C  0.36188976  0.29231670  0.97307035    -0.23000
C1189       C  0.39855968  0.29869455  0.96737953    -0.00100
H1190       H  0.34476706  0.29869703  0.50923261     0.13700
H1191       H  0.34220416  0.29405361  0.95893344     0.13800
N1192       N  0.20368169  0.50473872  0.99237206    -0.02500
C1193       C  0.20104117  0.48543655  0.96930959     0.00000
C1194       C  0.19161932  0.44860729  0.97585305    -0.22800
C1195       C  0.19176800  0.44620597  0.00342844    -0.23000
C1196       C  0.20359153  0.49433944  0.51077118    -0.00100
H1197       H  0.19135076  0.42784253  0.96219718     0.13700
H1198       H  0.18824902  0.43420913  0.51182383     0.13800
N1199       N  0.73613077  0.61394574  0.98873138    -0.02500
C1200       C  0.74319864  0.63698336  0.96675498     0.00000
C1201       C  0.75224060  0.67289678  0.97536005    -0.22800
C1202       C  0.74592753  0.67058786  0.00257393    -0.23000
C1203       C  0.73330681  0.62932119  0.51406337    -0.00100
H1204       H  0.75508897  0.69580693  0.96262461     0.13700
H1205       H  0.74519822  0.68822316  0.51854712     0.13800
N1206       N  0.55992470  0.84551431  0.98955194    -0.02500
C1207       C  0.57779615  0.84301822  0.96688620     0.00000
C1208       C  0.61418770  0.84953398  0.97392947    -0.22800
C1209       C  0.61751892  0.85339143  0.00143127    -0.23000
C1210       C  0.58232347  0.84707045  0.01098878    -0.00100
H1211       H  0.63366555  0.84559885  0.96123658     0.13700
H1212       H  0.63932703  0.85166421  0.01325536     0.13800
C1213       C  0.23003378  0.49118425  0.89595686    -0.04500
C1214       C  0.27096636  0.51567716  0.89789809     0.09600
C1215       C  0.28725026  0.53657364  0.92197048    -0.01900
C1216       C  0.26320213  0.53150272  0.94423409    -0.00200
C1217       C  0.22302778  0.50277379  0.94363461    -0.03800
C1218       C  0.20635945  0.48415822  0.91886414     0.03200
C1219       C  0.29721875  0.51960233  0.87489088     0.10100
C1220       C  0.32911775  0.56274816  0.92414514     0.36000
C1221       C  0.16464490  0.45737292  0.91728055     0.37300
C1222       C  0.31844844  0.55469704  0.86076853    -0.04200
C1223       C  0.34658800  0.56006643  0.84151229     0.03000
C1224       C  0.35232510  0.52977314  0.83501858    -0.03800
C1225       C  0.32972906  0.49396950  0.84788380     0.00000
C1226       C  0.30286711  0.48910235  0.86818948    -0.02500
C1227       C  0.31120535  0.58537676  0.86577666     0.36700
C1228       C  0.33398325  0.46215644  0.84000840     0.40300
C1229       C  0.36995033  0.59702052  0.82839205     0.39500
C1230       C  0.28132392  0.45279732  0.88230610     0.36400
C1231       C  0.21238016  0.47274422  0.87052405     0.37100
C1232       C  0.27996935  0.55743085  0.96693649     0.40300
N1233       N  0.38876831  0.62652772  0.81804691    -0.37800
N1234       N  0.30593352  0.61028987  0.86936258    -0.39300
N1235       N  0.33751112  0.43690830  0.83357185    -0.37100
N1236       N  0.26405382  0.42371644  0.89344315    -0.39500
N1237       N  0.36248577  0.58368376  0.92581919    -0.39300
N1238       N  0.29392303  0.57928467  0.98441489    -0.36900
N1239       N  0.13131127  0.43597663  0.91662909    -0.37900
N1240       N  0.19826318  0.45808633  0.85020015    -0.39600
C1241       C  0.30219157  0.49393295  0.61501296    -0.04500
C1242       C  0.29309610  0.52262145  0.61032512     0.09600
C1243       C  0.30648510  0.55329527  0.62875485    -0.01900
C1244       C  0.33116136  0.55678157  0.65043297    -0.00200
C1245       C  0.34255476  0.52960639  0.65379291    -0.03800
C1246       C  0.32603731  0.49698214  0.63707629     0.03200
C1247       C  0.26977846  0.52012017  0.58570710     0.10100
C1248       C  0.29529636  0.58150748  0.62550234     0.36000
C1249       C  0.33181972  0.46563698  0.64356059     0.39400
C1250       C  0.22865688  0.49817345  0.58623095    -0.04200
C1251       C  0.20670748  0.49082244  0.56208044     0.03000
C1252       C  0.22589908  0.50541170  0.53702551    -0.03800
C1253       C  0.26693071  0.52248208  0.53657375     0.00000
C1254       C  0.28877432  0.53302338  0.56072930    -0.02500
C1255       C  0.20959467  0.48040074  0.61142083     0.36700
C1256       C  0.28438748  0.51012576  0.01371684     0.40300
C1257       C  0.16492394  0.46420514  0.56266499     0.39500
C1258       C  0.33105413  0.55411294  0.55965919     0.36400
C1259       C  0.28704759  0.46128488  0.59700618     0.37100
C1260       C  0.34630238  0.58927999  0.66865130     0.40300
N1261       N  0.13167862  0.44233104  0.56326427    -0.37800
N1262       N  0.19580351  0.46612775  0.63184648    -0.39300
N1263       N  0.29929601  0.50541067  0.99547937    -0.37100
N1264       N  0.36477328  0.57106636  0.55868473    -0.39500
N1265       N  0.28679061  0.60448280  0.62378108    -0.39300
N1266       N  0.35872301  0.61524796  0.68313128    -0.36900
N1267       N  0.33597834  0.44041484  0.64905241    -0.37900
N1268       N  0.27494600  0.43530175  0.58257081    -0.39600
C1269       C  0.52980314  0.71351620  0.87793481    -0.04500
C1270       C  0.51946866  0.74139743  0.87445890     0.09600
C1271       C  0.50073401  0.74179102  0.85051141    -0.01900
C1272       C  0.49267396  0.71473220  0.82989796    -0.00200
C1273       C  0.50263457  0.68616566  0.83321894    -0.03800
C1274       C  0.52062580  0.68548770  0.85788840     0.03200
C1275       C  0.52979943  0.77108378  0.89594059     0.10100
C1276       C  0.49007344  0.77049678  0.84705342     0.36000
C1277       C  0.53035250  0.65640946  0.86300480     0.39400
C1278       C  0.56467875  0.80683416  0.89406644    -0.04200
C1279       C  0.57880841  0.83185478  0.91645047     0.03000
C1280       C  0.55785089  0.82150768  0.94125670    -0.03800
C1281       C  0.52121770  0.78631639  0.94217818     0.00000
C1282       C  0.50711936  0.76184694  0.91943662    -0.02500
C1283       C  0.58706081  0.81702883  0.86929209     0.36700
C1284       C  0.49947080  0.77238003  0.96707513     0.40300
C1285       C  0.61647735  0.86696725  0.91392935     0.39500
C1286       C  0.46973356  0.72610058  0.92049325     0.36400
C1287       C  0.55119088  0.71456487  0.90198208     0.37100
C1288       C  0.47323075  0.71633500  0.80565061     0.40300
N1289       N  0.64678789  0.89449338  0.91120480    -0.37800
N1290       N  0.60477229  0.82511064  0.84949784    -0.39300
N1291       N  0.48157620  0.76001383  0.98664938    -0.37100
N1292       N  0.43981703  0.69771660  0.92130063    -0.39500
N1293       N  0.48167158  0.79345964  0.84431081    -0.39300
N1294       N  0.45789421  0.71856220  0.78651217    -0.36900
N1295       N  0.53776723  0.63310064  0.86762716    -0.37900
N1296       N  0.56858650  0.71579979  0.92104934    -0.39600
C1297       C  0.53532646  0.79922402  0.58448737    -0.04500
C1298       C  0.52387540  0.76053415  0.58060516     0.09600
C1299       C  0.52524362  0.74786706  0.55439815    -0.01900
C1300       C  0.53555649  0.77300948  0.53218636    -0.00200
C1301       C  0.54547700  0.81154548  0.53596939    -0.03800
C1302       C  0.54994092  0.82519131  0.56269972     0.03200
C1303       C  0.51464823  0.73423904  0.60435110     0.10100
C1304       C  0.51814773  0.70950603  0.55044806     0.36000
C1305       C  0.57480236  0.86569583  0.56838542     0.39400
C1306       C  0.47731587  0.70097672  0.60692557    -0.04200
C1307       C  0.47015554  0.67404325  0.62736917     0.03000
C1308       C  0.49844748  0.68230739  0.64759195    -0.03800
C1309       C  0.53569615  0.71586374  0.64528631     0.00000
C1310       C  0.54419064  0.74091478  0.62318753    -0.02500
C1311       C  0.44636240  0.69398134  0.58818510     0.36700
C1312       C  0.56628865  0.72290877  0.66436122     0.40300
C1313       C  0.43495974  0.63663011  0.62600327     0.39500
C1314       C  0.58384529  0.77248059  0.61903753     0.36400
C1315       C  0.53230862  0.81242089  0.61095711     0.37100
C1316       C  0.56001880  0.76716313  0.00530272     0.40300
N1317       N  0.40763589  0.60637014  0.62355460    -0.37800
N1318       N  0.42154016  0.68818364  0.57331337    -0.39300
N1319       N  0.59076151  0.72832912  0.67944685    -0.37100
N1320       N  0.61548008  0.79752993  0.61551177    -0.39500
N1321       N  0.51259869  0.67899631  0.54724669    -0.39300
N1322       N  0.56479770  0.75580384  0.98522900    -0.36900
N1323       N  0.59578838  0.89779374  0.57333225    -0.37900
N1324       N  0.52929806  0.82270122  0.63202338    -0.39600
C1325       C  0.65122663  0.64142416  0.86108068    -0.04500
C1326       C  0.65502563  0.60974492  0.86758233     0.09600
C1327       C  0.63280677  0.57512777  0.85318682    -0.01900
C1328       C  0.60550196  0.57155303  0.83358534    -0.00200
C1329       C  0.59972013  0.60227947  0.82856608    -0.03800
C1330       C  0.62365403  0.63769606  0.84158276     0.03200
C1331       C  0.67752680  0.61136512  0.89231345     0.10100
C1332       C  0.63740139  0.54284222  0.85861325     0.36000
C1333       C  0.62013536  0.67030177  0.83467153     0.39400
C1334       C  0.65832517  0.60221979  0.91734082    -0.04200
C1335       C  0.67967091  0.60988071  0.94152679     0.03000
C1336       C  0.72024319  0.62366844  0.94105880    -0.03800
C1337       C  0.73960720  0.63375411  0.91592329     0.00000
C1338       C  0.71824911  0.62699151  0.89159947    -0.02500
C1339       C  0.61672937  0.58776188  0.91825846     0.36700
C1340       C  0.78183156  0.65378128  0.91545204     0.40300
C1341       C  0.66098297  0.61057076  0.96627508     0.39500
C1342       C  0.73822328  0.63755327  0.86592890     0.36400
C1343       C  0.67524127  0.67764658  0.87489740     0.37100
C1344       C  0.58342860  0.53621651  0.81837698     0.40300
N1345       N  0.64552009  0.61261133  0.98526084    -0.37800
N1346       N  0.58365603  0.57645091  0.91898316    -0.39300
N1347       N  0.81556630  0.67016677  0.91573651    -0.37100
N1348       N  0.75404041  0.64598042  0.84536349    -0.39500
N1349       N  0.64015408  0.51633188  0.86211356    -0.39300
N1350       N  0.56618397  0.50819279  0.80605070    -0.36900
N1351       N  0.61736353  0.69630622  0.82901489    -0.37900
N1352       N  0.69457756  0.70657083  0.88586719    -0.39600
C1353       C  0.63444505  0.57564962  0.63167380    -0.04500
C1354       C  0.64070837  0.59885452  0.60893480     0.09600
C1355       C  0.61978990  0.61774593  0.60593833    -0.01900
C1356       C  0.59275028  0.61357478  0.62569759    -0.00200
C1357       C  0.58663135  0.59058515  0.64868001    -0.03800
C1358       C  0.60719423  0.57114359  0.65137424     0.03200
C1359       C  0.66710589  0.60127262  0.58693221     0.10100
C1360       C  0.62605244  0.64144432  0.58239432     0.36000
C1361       C  0.59894802  0.54490667  0.67366943     0.39400
C1362       C  0.65148540  0.57604545  0.56487948    -0.04200
C1363       C  0.67445859  0.58181879  0.54191464     0.03000
C1364       C  0.71306212  0.61409615  0.54055727    -0.03800
C1365       C  0.72987331  0.63638798  0.56420482     0.00000
C1366       C  0.70695852  0.62979614  0.58733647    -0.02500
C1367       C  0.61117494  0.54466137  0.56567973     0.36700
C1368       C  0.77069368  0.66667976  0.56464742     0.40300
C1369       C  0.65759879  0.55423555  0.52014211     0.39500
C1370       C  0.72400997  0.65302219  0.61130502     0.36400
C1371       C  0.65580402  0.55609443  0.63454867     0.37100
C1372       C  0.57159094  0.63331413  0.62243422     0.40300
N1373       N  0.64683898  0.53620907  0.99710412    -0.37800
N1374       N  0.57902927  0.51969326  0.56652774    -0.39300
N1375       N  0.80323991  0.69085068  0.56504254    -0.37100
N1376       N  0.73772843  0.67139609  0.63048421    -0.39500
N1377       N  0.63094861  0.66037300  0.56364820    -0.39300
N1378       N  0.55449047  0.64880314  0.61973003    -0.36900
N1379       N  0.59226609  0.52371318  0.69127914    -0.37900
N1380       N  0.67295794  0.54060955  0.63683891    -0.39600
C1381       C  0.43199582  0.42491087  0.87914075    -0.04500
C1382       C  0.44408279  0.39844408  0.87541575     0.09600
C1383       C  0.46206520  0.39872579  0.85109888    -0.01900
C1384       C  0.46708052  0.42453336  0.83020704    -0.00200
C1385       C  0.45481691  0.45129138  0.83359306    -0.03800
C1386       C  0.43800330  0.45168412  0.85872030     0.03200
C1387       C  0.43758216  0.37011298  0.89722116     0.10100
C1388       C  0.47544560  0.37217183  0.84760806     0.36000
C1389       C  0.42631895  0.47922551  0.86395481     0.39400
C1390       C  0.40657911  0.33170290  0.89519188    -0.04200
C1391       C  0.39752982  0.30640173  0.91715983     0.03000
C1392       C  0.41832054  0.31964466  0.94181584    -0.03800
C1393       C  0.45261770  0.35677830  0.94240178     0.00000
C1394       C  0.46182205  0.38191831  0.92025581    -0.02500
C1395       C  0.38275920  0.31879685  0.87095425     0.36700
C1396       C  0.47900232  0.36978385  0.96535303     0.40300
C1397       C  0.36608772  0.26674769  0.91467626     0.39500
C1398       C  0.49576941  0.42048831  0.92139648     0.36400
C1399       C  0.41244905  0.42394883  0.90394417     0.37100
C1400       C  0.48611389  0.42361565  0.80574822     0.40300
N1401       N  0.34111069  0.23506092  0.91272835    -0.37800
N1402       N  0.36382893  0.30867887  0.85156919    -0.39300
N1403       N  0.50094396  0.38083323  0.98318797    -0.37100
N1404       N  0.52282156  0.45123975  0.92233701    -0.39500
N1405       N  0.48600620  0.35092969  0.84472765    -0.39300
N1406       N  0.50154107  0.42145345  0.78680731    -0.36900
N1407       N  0.41740703  0.50136680  0.86866965    -0.37900
N1408       N  0.39668484  0.42302530  0.92365888    -0.39600
C1409       C  0.44994810  0.39221068  0.55543539    -0.04500
C1410       C  0.43435037  0.37594650  0.58084374     0.09600
C1411       C  0.40919780  0.33584333  0.58293837    -0.01900
C1412       C  0.40009536  0.31224258  0.55989569    -0.00200
C1413       C  0.41654509  0.32844220  0.53444934    -0.03800
C1414       C  0.43850831  0.36894754  0.53222581     0.03200
C1415       C  0.43917857  0.40163995  0.60413375     0.10100
C1416       C  0.39021772  0.31920437  0.60841455     0.36000
C1417       C  0.42961103  0.38220033  0.00614541     0.39400
C1418       C  0.42208022  0.42430477  0.60277249    -0.04200
C1419       C  0.42930343  0.45120108  0.62318035     0.03000
C1420       C  0.44974934  0.45253570  0.64708458    -0.03800
C1421       C  0.46670413  0.42952622  0.64841263     0.00000
C1422       C  0.46187708  0.40472454  0.62688444    -0.02500
C1423       C  0.39691267  0.41997430  0.58014387     0.36700
C1424       C  0.49195916  0.43344162  0.67077063     0.40300
C1425       C  0.41755960  0.47883588  0.61830452     0.39500
C1426       C  0.48093629  0.38283851  0.62794585     0.36400
C1427       C  0.47449907  0.43355744  0.55266372     0.37100
C1428       C  0.37004057  0.27203857  0.56193350     0.40300
N1429       N  0.40934888  0.50154402  0.61356232    -0.37800
N1430       N  0.37692785  0.41644387  0.56206609    -0.39300
N1431       N  0.51264360  0.43631740  0.68817482    -0.37100
N1432       N  0.49626789  0.36548912  0.62902401    -0.39500
N1433       N  0.37492947  0.30606154  0.62872100    -0.39300
N1434       N  0.34551937  0.24017124  0.56389092    -0.36900
N1435       N  0.42792073  0.39597673  0.98613890    -0.37900
N1436       N  0.49337571  0.46651464  0.55028292    -0.39600
C1437       C  0.83598361  0.60704360  0.63247310    -0.04500
C1438       C  0.82708172  0.58460636  0.60907176     0.09600
C1439       C  0.84365918  0.56195332  0.60513659    -0.01900
C1440       C  0.86853325  0.56096221  0.62483531    -0.00200
C1441       C  0.87722712  0.58291700  0.64885988    -0.03800
C1442       C  0.86131789  0.60664939  0.65217607     0.03200
C1443       C  0.80008121  0.58422726  0.58812751     0.10100
C1444       C  0.83443719  0.53907345  0.58075337     0.36000
C1445       C  0.87183040  0.63182508  0.67531398     0.39400
C1446       C  0.81529153  0.60921295  0.56591977    -0.04200
C1447       C  0.79194884  0.60282803  0.54286945     0.03000
C1448       C  0.75321329  0.57070281  0.54184521    -0.03800
C1449       C  0.73680500  0.54885788  0.56567444     0.00000
C1450       C  0.76040205  0.55520414  0.58852743    -0.02500
C1451       C  0.85602178  0.63974382  0.56605270     0.36700
C1452       C  0.69597533  0.51861331  0.56640282     0.40300
C1453       C  0.80895585  0.62887871  0.52025888     0.39500
C1454       C  0.74490154  0.52973277  0.61161186     0.36400
C1455       C  0.81869698  0.63026399  0.63628139     0.37100
C1456       C  0.88409182  0.53643324  0.62010307     0.40300
N1457       N  0.82320995  0.65045125  0.50266602    -0.37800
N1458       N  0.88856688  0.66390721  0.56609540    -0.39300
N1459       N  0.66700070  0.49951912  0.06296608    -0.37100
N1460       N  0.73289952  0.50927137  0.62996372    -0.39500
N1461       N  0.82688539  0.52090718  0.56130525    -0.39300
N1462       N  0.89616158  0.51683224  0.61531271    -0.36900
N1463       N  0.88001215  0.65221994  0.69357830    -0.37900
N1464       N  0.80476591  0.64866213  0.63932114    -0.39600
C1465       C  0.84366593  0.60553161  0.85430927    -0.04500
C1466       C  0.82182146  0.57402461  0.87164224     0.09600
C1467       C  0.82440308  0.54098372  0.86880613    -0.01900
C1468       C  0.84908652  0.53969486  0.84916314    -0.00200
C1469       C  0.87101292  0.57123233  0.83176664    -0.03800
C1470       C  0.86768776  0.60396142  0.83422880     0.03200
C1471       C  0.79991097  0.57687691  0.89513119     0.10100
C1472       C  0.80217815  0.50850350  0.88663229     0.36000
C1473       C  0.89009721  0.63675949  0.81671208     0.39400
C1474       C  0.75899775  0.56001111  0.89420006    -0.04200
C1475       C  0.73800108  0.55609924  0.91810258     0.03000
C1476       C  0.75779744  0.56987524  0.94302087    -0.03800
C1477       C  0.79884834  0.58633629  0.94371259     0.00000
C1478       C  0.81978333  0.59142197  0.91975476    -0.02500
C1479       C  0.73867469  0.54574577  0.86874542     0.36700
C1480       C  0.81913729  0.59166938  0.96907085     0.40300
C1481       C  0.69574312  0.53561542  0.91773786     0.39500
C1482       C  0.86195148  0.60960617  0.92065064     0.36400
C1483       C  0.84251984  0.64015386  0.85764798     0.37100
C1484       C  0.85118782  0.50546837  0.84664626     0.40300
N1485       N  0.66202651  0.51915327  0.91848107    -0.37800
N1486       N  0.72294354  0.53465098  0.84820525    -0.39300
N1487       N  0.82680256  0.57657014  0.49124442    -0.37100
N1488       N  0.89557081  0.62427074  0.92120680    -0.39500
N1489       N  0.78440360  0.48263753  0.90086231    -0.39300
N1490       N  0.85244433  0.47789143  0.84495184    -0.36900
N1491       N  0.90786799  0.66300025  0.80278876    -0.37900
N1492       N  0.84234446  0.66822958  0.86003376    -0.39600
C1493       C  0.81018465  0.36224083  0.56126207    -0.04500
C1494       C  0.82254282  0.35405315  0.58565749     0.09600
C1495       C  0.82590230  0.32143176  0.58732611    -0.01900
C1496       C  0.82437827  0.30164935  0.56368339    -0.00200
C1497       C  0.81368766  0.31059123  0.53867131    -0.03800
C1498       C  0.80623827  0.34098462  0.53776957     0.03200
C1499       C  0.84274165  0.38487104  0.60655652     0.10100
C1500       C  0.83616945  0.31154789  0.61292507     0.36000
C1501       C  0.80211001  0.35556386  0.51205278     0.39400
C1502       C  0.82174973  0.39361169  0.62491751    -0.04200
C1503       C  0.84182740  0.42151252  0.64517411     0.03000
C1504       C  0.88303510  0.44118174  0.64693108    -0.03800
C1505       C  0.90401089  0.43326791  0.62799666     0.00000
C1506       C  0.88401984  0.40546213  0.60784251    -0.02500
C1507       C  0.77964333  0.37426212  0.62282124     0.36700
C1508       C  0.94614264  0.45228597  0.62995187     0.40300
C1509       C  0.82008417  0.43035257  0.66401210     0.39500
C1510       C  0.90607002  0.39770725  0.58845422     0.36400
C1511       C  0.80557285  0.39517099  0.55969319     0.37100
C1512       C  0.84181610  0.27821233  0.56426361     0.40300
N1513       N  0.80270022  0.43736292  0.67903782    -0.37800
N1514       N  0.74607937  0.35938610  0.62102152    -0.39300
N1515       N  0.97970955  0.46695940  0.63133089    -0.37100
N1516       N  0.92350652  0.39124830  0.57308853    -0.39500
N1517       N  0.84447440  0.30385621  0.63336147    -0.39300
N1518       N  0.85750421  0.26115174  0.56476825    -0.36900
N1519       N  0.79984570  0.36878355  0.49196461    -0.37900
N1520       N  0.80176879  0.42135126  0.55847671    -0.39600
C1521       C  0.81153803  0.34235251  0.90840902    -0.04500
C1522       C  0.83941938  0.34198017  0.89151465     0.09600
C1523       C  0.85487832  0.31905770  0.89832102    -0.01900
C1524       C  0.84689950  0.30104914  0.92372538    -0.00200
C1525       C  0.82233425  0.30496200  0.94235501    -0.03800
C1526       C  0.80288075  0.32385565  0.93374039     0.03200
C1527       C  0.85776714  0.37104621  0.86946822     0.10100
C1528       C  0.88148083  0.31657863  0.87994816     0.36000
C1529       C  0.77589916  0.32684014  0.95122847     0.39400
C1530       C  0.89198072  0.40641772  0.87503460    -0.04200
C1531       C  0.90964327  0.43462742  0.85477774     0.03000
C1532       C  0.89165603  0.42892131  0.82898687    -0.03800
C1533       C  0.85701338  0.39282347  0.82365506     0.00000
C1534       C  0.84128203  0.36374152  0.84351926    -0.02500
C1535       C  0.90922074  0.41356803  0.90183886     0.36700
C1536       C  0.83631465  0.38516085  0.79817389     0.40300
C1537       C  0.94717847  0.46865007  0.86063545     0.39500
C1538       C  0.80876554  0.32574612  0.83711398     0.36400
C1539       C  0.79412418  0.36445542  0.90055370     0.37100
C1540       C  0.86687028  0.28128204  0.93156066     0.40300
N1541       N  0.97723463  0.49543063  0.86564038    -0.37800
N1542       N  0.92267510  0.41898984  0.92326428    -0.39300
N1543       N  0.81927770  0.37843207  0.77802397    -0.37100
N1544       N  0.78345530  0.29518037  0.83184311    -0.39500
N1545       N  0.90269124  0.31463858  0.86526113    -0.39300
N1546       N  0.89146210  0.26988800  0.43484146    -0.36900
N1547       N  0.75359966  0.32955646  0.96419070    -0.37900
N1548       N  0.78035399  0.38219587  0.89431340    -0.39600
C1549       C  0.12744618  0.52078835  0.56123524    -0.04500
C1550       C  0.14293090  0.54349347  0.58445471     0.09600
C1551       C  0.18330443  0.57019373  0.58640253    -0.01900
C1552       C  0.20757908  0.57658772  0.56407934    -0.00200
C1553       C  0.19133128  0.55731922  0.53941074    -0.03800
C1554       C  0.15128320  0.52770482  0.53862144     0.03200
C1555       C  0.11588247  0.54176237  0.60563903     0.10100
C1556       C  0.19930917  0.59238489  0.61089720     0.36000
C1557       C  0.13370063  0.50396931  0.51495817     0.39400
C1558       C  0.10571071  0.51653143  0.62758380    -0.04200
C1559       C  0.08205722  0.51677756  0.64835055     0.03000
C1560       C  0.06551474  0.54007266  0.64612927    -0.03800
C1561       C  0.07189776  0.56166267  0.62205581     0.00000
C1562       C  0.09816648  0.56358052  0.60250629    -0.02500
C1563       C  0.11667392  0.48792606  0.62760032     0.36700
C1564       C  0.05135214  0.58158857  0.61667055     0.40300
C1565       C  0.07349598  0.49139535  0.67121041     0.39500
C1566       C  0.10600457  0.58703980  0.57853643     0.36400
C1567       C  0.08652873  0.49064546  0.56061789     0.37100
C1568       C  0.24917900  0.60406793  0.56594113     0.40300
N1569       N  0.06726717  0.47095468  0.68923427    -0.37800
N1570       N  0.12357961  0.46376510  0.62739267    -0.39300
N1571       N  0.03467253  0.59698229  0.61167093    -0.37100
N1572       N  0.11202552  0.60551031  0.55935907    -0.39500
N1573       N  0.21181015  0.61005936  0.63049857    -0.39300
N1574       N  0.28241555  0.62595389  0.56683242    -0.36900
N1575       N  0.11880191  0.48405061  0.49659748    -0.37900
N1576       N  0.05401936  0.46639221  0.56042636    -0.39600
C1577       C  0.12437662  0.57645173  0.86403391    -0.04500
C1578       C  0.12093343  0.54156429  0.87220551     0.09600
C1579       C  0.09522500  0.50759133  0.85790396    -0.01900
C1580       C  0.07076497  0.50793592  0.83738582    -0.00200
C1581       C  0.07418538  0.54278543  0.82950947    -0.03800
C1582       C  0.10291145  0.57726104  0.84169958     0.03200
C1583       C  0.14219538  0.54060848  0.89706848     0.10100
C1584       C  0.09407734  0.47234231  0.86404917     0.36000
C1585       C  0.11205790  0.61370364  0.83023131     0.39400
C1586       C  0.12155623  0.52652648  0.92143483    -0.04200
C1587       C  0.14180151  0.53265214  0.94611829     0.03000
C1588       C  0.18300726  0.55027109  0.94664796    -0.03800
C1589       C  0.20358316  0.56606332  0.92226003     0.00000
C1590       C  0.18332040  0.55971184  0.89753048    -0.02500
C1591       C  0.07943331  0.50897673  0.92141439     0.36700
C1592       C  0.24522546  0.59344028  0.92313723     0.40300
C1593       C  0.13430704  0.55993739  0.47180543     0.39500
C1594       C  0.20477664  0.57493411  0.87263441     0.36400
C1595       C  0.14894754  0.61141693  0.87912853     0.37100
C1596       C  0.04173255  0.47239701  0.82460931     0.40300
N1597       N  0.12194508  0.56540384  0.49117034    -0.37800
N1598       N  0.04589166  0.49508383  0.92128680    -0.39300
N1599       N  0.27823456  0.61614201  0.92418975    -0.37100
N1600       N  0.22152094  0.58713082  0.85263738    -0.39500
N1601       N  0.09299412  0.44393051  0.86825471    -0.39300
N1602       N  0.01838570  0.44400607  0.81454641    -0.36900
N1603       N  0.12035034  0.64282097  0.82061238    -0.37900
N1604       N  0.16823209  0.63930749  0.89124612    -0.39600
C1605       C  0.12747543  0.73750591  0.55983341    -0.04500
C1606       C  0.14598646  0.74899427  0.58525876     0.09600
C1607       C  0.18664462  0.77581071  0.58640189    -0.01900
C1608       C  0.20838586  0.79052571  0.56233050    -0.00200
C1609       C  0.18948084  0.78118986  0.53698281    -0.03800
C1610       C  0.14914061  0.75265456  0.53590884     0.03200
C1611       C  0.12354745  0.72782612  0.61012023     0.10100
C1612       C  0.20619765  0.78703035  0.61234730     0.36000
C1613       C  0.13123907  0.73354229  0.51065871     0.39400
C1614       C  0.13037940  0.70038914  0.62224794    -0.04200
C1615       C  0.10665349  0.67727736  0.64362553     0.03000
C1616       C  0.07411442  0.67926883  0.65175579    -0.03800
C1617       C  0.06704126  0.70637034  0.63975710     0.00000
C1618       C  0.09242146  0.73148151  0.61969156    -0.02500
C1619       C  0.16088914  0.69478035  0.61206684     0.36700
C1620       C  0.03286701  0.70753036  0.64752692     0.40300
C1621       C  0.11560464  0.65116083  0.65712482     0.39500
C1622       C  0.08589298  0.76065160  0.60886164     0.36400
C1623       C  0.08657440  0.70739613  0.55823061     0.37100
C1624       C  0.25062031  0.81280802  0.56310551     0.40300
N1625       N  0.12314341  0.63062942  0.66790196    -0.37800
N1626       N  0.18521254  0.69029342  0.60395915    -0.39300
N1627       N  0.00532632  0.70804194  0.65355224    -0.37100
N1628       N  0.07957333  0.78358903  0.60098761    -0.39500
N1629       N  0.22143617  0.79565151  0.63321276    -0.39300
N1630       N  0.28433931  0.83013984  0.56241113    -0.36900
N1631       N  0.12453554  0.70585006  0.99200789    -0.37900
N1632       N  0.05402976  0.68332532  0.55705785    -0.39600
C1633       C  0.11420493  0.73783763  0.85256033    -0.04500
C1634       C  0.11621511  0.72151934  0.87706768     0.09600
C1635       C  0.09207510  0.68176658  0.88117095    -0.01900
C1636       C  0.06643788  0.65804671  0.86069504    -0.00200
C1637       C  0.06471641  0.67387677  0.83540108    -0.03800
C1638       C  0.08842093  0.71441146  0.83189323     0.03200
C1639       C  0.14434953  0.74571150  0.89874528     0.10100
C1640       C  0.09465596  0.66496800  0.90640225     0.36000
C1641       C  0.08664153  0.73278166  0.80728232     0.39400
C1642       C  0.13089983  0.75564181  0.92161812    -0.04200
C1643       C  0.15521304  0.77161121  0.94448190     0.03000
C1644       C  0.19316149  0.77690977  0.94478743    -0.03800
C1645       C  0.20769952  0.77050358  0.92059543     0.00000
C1646       C  0.18335739  0.75499535  0.89772470    -0.02500
C1647       C  0.09115713  0.74759801  0.92196788     0.36700
C1648       C  0.24742448  0.77867313  0.91937088     0.40300
C1649       C  0.13991213  0.78092848  0.96769696     0.39500
C1650       C  0.19768014  0.74659520  0.87350872     0.36400
C1651       C  0.13950671  0.77885182  0.84851219     0.37100
C1652       C  0.04366389  0.61707853  0.86578268     0.40300
N1653       N  0.12705118  0.78838449  0.98585223    -0.37800
N1654       N  0.05940028  0.74097190  0.92217953    -0.39300
N1655       N  0.27901332  0.78493124  0.91827530    -0.37100
N1656       N  0.20882041  0.73986917  0.85406505    -0.39500
N1657       N  0.09667909  0.65148283  0.92644601    -0.39300
N1658       N  0.02585329  0.58451329  0.87020806    -0.36900
N1659       N  0.08591930  0.74817391  0.78783847    -0.37900
N1660       N  0.16000676  0.81151338  0.84534161    -0.39600
C1661       C  0.69696643  0.23034261  0.56737469    -0.04500
C1662       C  0.69641955  0.20576631  0.58753504     0.09600
C1663       C  0.72408279  0.19449360  0.58677669    -0.01900
C1664       C  0.74884022  0.20374978  0.56426915    -0.00200
C1665       C  0.74615239  0.22449245  0.54198755    -0.03800
C1666       C  0.72218775  0.24031109  0.54501304     0.03200
C1667       C  0.66439230  0.18877018  0.60809883     0.10100
C1668       C  0.72528528  0.17122630  0.60850628     0.36000
C1669       C  0.72128216  0.26551579  0.52505847     0.39400
C1670       C  0.63232216  0.15119223  0.60448547    -0.04200
C1671       C  0.60300827  0.13391983  0.62433594     0.03000
C1672       C  0.60412748  0.15489185  0.64745597    -0.03800
C1673       C  0.63531550  0.19360053  0.65001863     0.00000
C1674       C  0.66583201  0.20986973  0.63092333    -0.02500
C1675       C  0.62958308  0.13019713  0.58015895     0.36700
C1676       C  0.63566746  0.21751710  0.67169661     0.40300
C1677       C  0.57285075  0.09398243  0.62110406     0.39500
C1678       C  0.69924985  0.24817199  0.63494962     0.36400
C1679       C  0.66953700  0.24334693  0.56877670     0.37100
C1680       C  0.77506737  0.18925666  0.56339786     0.40300
N1681       N  0.54932985  0.06204806  0.61787236    -0.37800
N1682       N  0.62731972  0.11359726  0.56068482    -0.39300
N1683       N  0.63622142  0.23713165  0.68870108    -0.37100
N1684       N  0.72617967  0.27855867  0.63820476    -0.39500
N1685       N  0.72606614  0.15255130  0.62581641    -0.39300
N1686       N  0.79551921  0.17717585  0.56276729    -0.36900
N1687       N  0.72260637  0.30180980  0.01745151    -0.37900
N1688       N  0.64761741  0.25364634  0.56978758    -0.39600
C1689       C  0.63477149  0.16611182  0.87535236    -0.04500
C1690       C  0.66344819  0.20512070  0.87156693     0.09600
C1691       C  0.66260974  0.22405758  0.84807984    -0.01900
C1692       C  0.63448577  0.20360986  0.82770391    -0.00200
C1693       C  0.60565883  0.16414113  0.83119541    -0.03800
C1694       C  0.60533463  0.14608047  0.85582660     0.03200
C1695       C  0.69362413  0.22557470  0.89316237     0.10100
C1696       C  0.68987114  0.26492691  0.84536089     0.36000
C1697       C  0.57432641  0.10724262  0.86191899     0.39400
C1698       C  0.72728431  0.22309718  0.89331408    -0.04200
C1699       C  0.74761969  0.22757759  0.91766261     0.03000
C1700       C  0.73610477  0.23722493  0.94195677    -0.03800
C1701       C  0.70303119  0.24132055  0.94118116     0.00000
C1702       C  0.68330716  0.23748267  0.91660598    -0.02500
C1703       C  0.73848263  0.21187479  0.86888027     0.36700
C1704       C  0.68376032  0.24100415  0.96586653     0.40300
C1705       C  0.77547160  0.21510005  0.91851151     0.39500
C1706       C  0.64944066  0.24153525  0.91589851     0.36400
C1707       C  0.63553534  0.14655800  0.89969042     0.37100
C1708       C  0.63444343  0.22415992  0.80382295     0.40300
N1709       N  0.79654052  0.20374377  0.91898007    -0.37800
N1710       N  0.74743732  0.20294741  0.84938745    -0.39300
N1711       N  0.66589758  0.23875468  0.98474868    -0.37100
N1712       N  0.62246358  0.24476849  0.91509780    -0.39500
N1713       N  0.71110261  0.29766358  0.84329085    -0.39300
N1714       N  0.63499287  0.24119936  0.78496710    -0.36900
N1715       N  0.54922398  0.07678658  0.86761816    -0.37900
N1716       N  0.63640798  0.13117296  0.91909073    -0.39600
C1717       C  0.47496215  0.19799529  0.60559406    -0.04500
C1718       C  0.44751694  0.20943676  0.60809296     0.09600
C1719       C  0.42226753  0.19702855  0.63036739    -0.01900
C1720       C  0.42526983  0.17425598  0.65067157    -0.00200
C1721       C  0.45312195  0.16284388  0.64850543    -0.03800
C1722       C  0.47738836  0.17434259  0.62534286     0.03200
C1723       C  0.44646619  0.23559546  0.58731698     0.10100
C1724       C  0.39327802  0.20796002  0.63228913     0.36000
C1725       C  0.50572389  0.16287255  0.62167529     0.39400
C1726       C  0.42080858  0.22047195  0.56512849    -0.04200
C1727       C  0.42572874  0.24401736  0.54273573     0.03000
C1728       C  0.45771875  0.28241210  0.54194205    -0.03800
C1729       C  0.47949018  0.29864646  0.56591213     0.00000
C1730       C  0.47402359  0.27522311  0.58845371    -0.02500
C1731       C  0.39060151  0.18015527  0.56480933     0.36700
C1732       C  0.50931987  0.33906350  0.56665102     0.40300
C1733       C  0.39706105  0.22854559  0.52120274     0.39500
C1734       C  0.49863690  0.29105850  0.61215333     0.36400
C1735       C  0.50135732  0.21137310  0.58274203     0.37100
C1736       C  0.39888512  0.16206673  0.67339911     0.40300
N1737       N  0.36185813  0.21004616  0.01299538    -0.37800
N1738       N  0.36654245  0.14797898  0.56456134    -0.39300
N1739       N  0.53318351  0.37129596  0.56718500    -0.37100
N1740       N  0.51809864  0.30312825  0.63120534    -0.39500
N1741       N  0.37010621  0.21665496  0.63351984    -0.39300
N1742       N  0.37766009  0.15271953  0.69142979    -0.36900
N1743       N  0.52827856  0.15386119  0.61794177    -0.37900
N1744       N  0.52247444  0.22242259  0.56459648    -0.39600
C1745       C  0.42957836  0.20146186  0.85003352    -0.04500
C1746       C  0.45011146  0.20768443  0.87444097     0.09600
C1747       C  0.47287286  0.19091887  0.87828976    -0.01900
C1748       C  0.47538672  0.16824651  0.85791449    -0.00200
C1749       C  0.45474575  0.16152660  0.83315519    -0.03800
C1750       C  0.43134951  0.17816600  0.82962962     0.03200
C1751       C  0.44764387  0.23113370  0.89682912     0.10100
C1752       C  0.49429571  0.19749512  0.90340733     0.36000
C1753       C  0.40799854  0.17079632  0.80543378     0.39400
C1754       C  0.42380045  0.21224786  0.91919561    -0.04200
C1755       C  0.43036420  0.23173756  0.94398240     0.03000
C1756       C  0.45681450  0.27191520  0.94576308    -0.03800
C1757       C  0.47947904  0.29114120  0.92257002     0.00000
C1758       C  0.47505976  0.27076006  0.89843360    -0.02500
C1759       C  0.39577300  0.17131304  0.91757412     0.36700
C1760       C  0.51132399  0.33069904  0.92446889     0.40300
C1761       C  0.41801430  0.20849199  0.96812019     0.39500
C1762       C  0.50153602  0.28957160  0.87609305     0.36400
C1763       C  0.40674186  0.21930535  0.84594066     0.37100
C1764       C  0.50040976  0.15300475  0.86268025     0.40300
N1765       N  0.40977895  0.18792550  0.98630539    -0.37800
N1766       N  0.37361706  0.13867156  0.91618858    -0.39300
N1767       N  0.53728485  0.36202974  0.92574275    -0.37100
N1768       N  0.52288137  0.30414910  0.85832226    -0.39500
N1769       N  0.51131399  0.20273320  0.92343085    -0.39300
N1770       N  0.52040292  0.14104334  0.86713944    -0.36900
N1771       N  0.38917265  0.16527562  0.78627759    -0.37900
N1772       N  0.38873011  0.23375159  0.84262411    -0.39600
C1773       C  0.29862432  0.91906819  0.55847315    -0.04500
C1774       C  0.28119702  0.91023922  0.58415856     0.09600
C1775       C  0.24035063  0.88575466  0.58622597    -0.01900
C1776       C  0.21714961  0.87060151  0.56269852    -0.00200
C1777       C  0.23459565  0.87815094  0.53698628    -0.03800
C1778       C  0.27537608  0.90459173  0.53502067     0.03200
C1779       C  0.30533828  0.93193482  0.60826811     0.10100
C1780       C  0.22215182  0.87704440  0.61251912     0.36000
C1781       C  0.29258708  0.92273615  0.50946787     0.39400
C1782       C  0.31268634  0.96919579  0.61344762    -0.04200
C1783       C  0.33818336  0.99152436  0.63452542     0.03000
C1784       C  0.35655643  0.97678793  0.65051834    -0.03800
C1785       C  0.34874416  0.93937834  0.64572413     0.00000
C1786       C  0.32328127  0.91703297  0.62465444    -0.02500
C1787       C  0.29456416  0.98482857  0.59662553     0.36700
C1788       C  0.36829132  0.92447379  0.66182497     0.40300
C1789       C  0.34537976  0.02957391  0.63991470     0.39500
C1790       C  0.31650997  0.87912178  0.61973479     0.36400
C1791       C  0.34047057  0.94521985  0.55615042     0.37100
C1792       C  0.17503897  0.84944480  0.56453953     0.40300
N1793       N  0.35108202  0.05988886  0.64432993    -0.37800
N1794       N  0.28014341  0.99720635  0.58307578    -0.39300
N1795       N  0.38403582  0.91268581  0.67456054    -0.37100
N1796       N  0.31210533  0.84903298  0.61676721    -0.39500
N1797       N  0.20761016  0.86977859  0.63353259    -0.39300
N1798       N  0.14135761  0.83301607  0.56517494    -0.36900
N1799       N  0.31291289  0.92922855  0.99222112    -0.37900
N1800       N  0.37380488  0.96610221  0.55432171    -0.39600
C1801       C  0.24824765  0.88920290  0.89766323    -0.04500
C1802       C  0.28752637  0.89915674  0.89795496     0.09600
C1803       C  0.30122249  0.88663835  0.91950771    -0.01900
C1804       C  0.27744074  0.86872686  0.94230970    -0.00200
C1805       C  0.23938155  0.86298504  0.94355636    -0.03800
C1806       C  0.22399395  0.87021980  0.91996282     0.03200
C1807       C  0.31470515  0.92383560  0.87591802     0.10100
C1808       C  0.34034055  0.89321194  0.91845303     0.36000
C1809       C  0.18319172  0.85875585  0.91876774     0.39400
C1810       C  0.33554818  0.96416483  0.87834633    -0.04200
C1811       C  0.36013831  0.98762938  0.85728514     0.03000
C1812       C  0.36469113  0.97095385  0.83361731    -0.03800
C1813       C  0.34328582  0.93035247  0.83124587     0.00000
C1814       C  0.31865271  0.90706988  0.85233495    -0.02500
C1815       C  0.33127014  0.98148761  0.90255229     0.36700
C1816       C  0.34639585  0.91202619  0.80722807     0.40300
C1817       C  0.37889181  0.02897090  0.85942313     0.39500
C1818       C  0.29711319  0.86562915  0.84986374     0.36400
C1819       C  0.23329747  0.90008378  0.87484509     0.37100
C1820       C  0.29315121  0.85746322  0.96440377     0.40300
N1821       N  0.39350436  0.06191205  0.86107116    -0.37800
N1822       N  0.32779073  0.99516066  0.92191648    -0.39300
N1823       N  0.34817238  0.89670460  0.78819070    -0.37100
N1824       N  0.27985418  0.83255742  0.84805644    -0.39500
N1825       N  0.37143931  0.89817425  0.91753116    -0.39300
N1826       N  0.30631994  0.84857849  0.98172530    -0.36900
N1827       N  0.15062129  0.84947964  0.91766840    -0.37900
N1828       N  0.22147293  0.90897772  0.85669197    -0.39600
C1829       C  0.53187118  0.92227101  0.56133164    -0.04500
C1830       C  0.50676578  0.90782044  0.58369806     0.09600
C1831       C  0.48093575  0.86795965  0.58624711    -0.01900
C1832       C  0.47725288  0.84316771  0.56517654    -0.00200
C1833       C  0.49863160  0.85804110  0.54102615    -0.03800
C1834       C  0.52866429  0.89737145  0.54038377     0.03200
C1835       C  0.50700362  0.93443197  0.60453044     0.10100
C1836       C  0.45691611  0.85268536  0.61011495     0.36000
C1837       C  0.55841736  0.91218523  0.51974658     0.39400
C1838       C  0.48171464  0.94850953  0.60177891    -0.04200
C1839       C  0.47944131  0.97110453  0.62234866     0.03000
C1840       C  0.50261950  0.97991806  0.64613493    -0.03800
C1841       C  0.52956346  0.96732851  0.64794317     0.00000
C1842       C  0.53157171  0.94467332  0.62728113    -0.02500
C1843       C  0.45798324  0.93975941  0.57757783     0.36700
C1844       C  0.55658838  0.97878621  0.67045340     0.40300
C1845       C  0.45305804  0.98503257  0.61853277     0.39500
C1846       C  0.55927233  0.93207915  0.62925270     0.36400
C1847       C  0.56077458  0.96293413  0.55977855     0.37100
C1848       C  0.45106553  0.80213309  0.56811255     0.40300
N1849       N  0.43234445  0.99635005  0.61468385    -0.37800
N1850       N  0.43914555  0.93307240  0.55828421    -0.39300
N1851       N  0.57845694  0.98779631  0.68822119    -0.37100
N1852       N  0.58155317  0.92225793  0.63080617    -0.39500
N1853       N  0.43772716  0.84062393  0.62916905    -0.39300
N1854       N  0.43043074  0.76936038  0.57048703    -0.36900
N1855       N  0.58180483  0.94884451  0.99770609    -0.37900
N1856       N  0.58387740  0.99534854  0.55850062    -0.39600
C1857       C  0.55582937  0.98769135  0.86923425    -0.04500
C1858       C  0.52575117  0.95087364  0.87756345     0.09600
C1859       C  0.49186129  0.93041264  0.86135405    -0.01900
C1860       C  0.48705418  0.94760161  0.83812837    -0.00200
C1861       C  0.51630885  0.98498447  0.83059541    -0.03800
C1862       C  0.55175841  0.00382683  0.84512325     0.03200
C1863       C  0.52825110  0.93411913  0.90396922     0.10100
C1864       C  0.46136733  0.89198205  0.86899099     0.36000
C1865       C  0.58447011  0.03910726  0.83467963     0.39400
C1866       C  0.50276214  0.92949169  0.92510814    -0.04200
C1867       C  0.50004112  0.90770786  0.94804312     0.03000
C1868       C  0.52373640  0.89129166  0.95021475    -0.03800
C1869       C  0.55651155  0.90654003  0.93331244     0.00000
C1870       C  0.55632430  0.92372176  0.90863388    -0.02500
C1871       C  0.47955869  0.94728074  0.92320426     0.36700
C1872       C  0.59383688  0.91757882  0.94509220     0.40300
C1873       C  0.47512045  0.90480566  0.97017306     0.39500
C1874       C  0.58532021  0.93096657  0.88845066     0.36400
C1875       C  0.59009982  0.00977852  0.88605714     0.37100
C1876       C  0.45203392  0.92672008  0.82187054     0.40300
N1877       N  0.51583189  0.93525996  0.48616386    -0.37800
N1878       N  0.46144856  0.96187436  0.92166217    -0.39300
N1879       N  0.62418543  0.92883710  0.95483897    -0.37100
N1880       N  0.60846677  0.93677646  0.87229335    -0.39500
N1881       N  0.43691609  0.86143941  0.87514527    -0.39300
N1882       N  0.42433519  0.90971788  0.80869156    -0.36900
N1883       N  0.61075745  0.06698376  0.82617015    -0.37900
N1884       N  0.61738934  0.02733873  0.89955745    -0.39600
loop_ 
_geom_bond_atom_site_label_1 
_geom_bond_atom_site_label_2 
_geom_bond_distance 
_geom_bond_site_symmetry_2 
_ccdc_geom_bond_type 
N1            C2   1.363   1_556  A
N1          C947   1.365       .  A
N1         N1206   1.433       .  S
C2            C3   1.383       .  A
C2          C891   1.510       .  S
C3          C946   1.367   1_554  A
C3            H6   1.082       .  S
C4            C5   1.379       .  A
C4          C945   1.367       .  A
C4            H7   1.083       .  S
C5          N943   1.374       .  A
C5          C926   1.503       .  S
N8           C12   1.367       .  A
N8          C951   1.367       .  A
N8          N174   1.432       .  S
C9          N950   1.369   1_554  A
C9           C10   1.381       .  A
C9          C835   1.499       .  S
C10         C953   1.366   1_554  A
C10          H13   1.083       .  S
C11          C12   1.383       .  A
C11         C952   1.367       .  A
C11          H14   1.082       .  S
C12         C863   1.508       .  S
O15         Zr27   2.448   1_565  S
O15          C17   1.289       .  A
O16         Zr53   2.430       .  S
O16          C17   1.288   1_545  A
C17         C870   1.493       .  S
O18         Zr30   2.465   1_565  S
O18          C20   1.292   1_565  A
O19         Zr54   2.441       .  S
O19          C20   1.290       .  A
C20         C898   1.515   1_545  S
O21         Zr30   2.460   1_565  S
O21          C23   1.291       .  A
O22         Zr53   2.435       .  S
O22          C23   1.289   1_545  A
C23         C919   1.516       .  S
O24         Zr27   2.443   1_565  S
O24          C26   1.288   1_565  A
O25         Zr54   2.432       .  S
O25          C26   1.288       .  A
C26         C842   1.484   1_545  S
Zr27         O28   2.433   1_545  S
Zr27         O29   2.436       .  S
Zr27         O33   2.370       .  S
Zr27         O34   2.372       .  S
Zr27         O57   2.376       .  S
Zr27         O59   2.372       .  S
O28          H71   0.990       .  S
O29          H70   0.990       .  S
O29          H74   0.990       .  S
Zr30         O31   2.436   1_545  S
Zr30         O32   2.433       .  S
Zr30         O34   2.368       .  S
Zr30         O33   2.372       .  S
Zr30         O58   2.374       .  S
Zr30         O60   2.374       .  S
O31          H72   0.990       .  S
O31          H75   0.990       .  S
O32          H65   0.990       .  S
O33         Zr53   2.383       .  S
O34         Zr54   2.390       .  S
O34          H61   0.966   1_545  S
O35         Zr47   2.451       .  S
O35          C37   1.290       .  A
O36         Zr54   2.441       .  S
O36          C37   1.290       .  A
C37         C779   1.500       .  S
O38         Zr50   2.436       .  S
O38          C40   1.286       .  A
O39         Zr53   2.438       .  S
O39          C40   1.290       .  A
C40         C751   1.487       .  S
O41         Zr50   2.432       .  S
O41          C43   1.286       .  A
O42         Zr54   2.441       .  S
O42          C43   1.290       .  A
C43         C730   1.503       .  S
O44         Zr47   2.450       .  S
O44          C46   1.290       .  A
O45         Zr53   2.443       .  S
O45          C46   1.291       .  A
C46         C807   1.501       .  S
Zr47         O48   2.435       .  S
Zr47         O49   2.431       .  S
Zr47         O55   2.373       .  S
Zr47         O56   2.371       .  S
Zr47         O59   2.378       .  S
Zr47         O57   2.381       .  S
O48          H68   0.990       .  S
O48          H73   0.990       .  S
O49          H69   0.989       .  S
Zr50         O51   2.432       .  S
Zr50         O52   2.435       .  S
Zr50         O56   2.368       .  S
Zr50         O55   2.370       .  S
Zr50         O60   2.376       .  S
Zr50         O58   2.376       .  S
O51          H67   0.990       .  S
O52          H66   0.990       .  S
O52          H76   0.990       .  S
Zr53         O56   2.376       .  S
Zr53         O58   2.387       .  S
Zr53         O59   2.389       .  S
Zr54         O55   2.385       .  S
Zr54         O57   2.391       .  S
Zr54         O60   2.385       .  S
O55          H63   0.965       .  S
O58          H62   0.966       .  S
O59          H64   0.967       .  S
N77          C81   1.364       .  A
N77          C78   1.375       .  A
N77         N243   1.432       .  S
C78          C79   1.379       .  A
C78         C814   1.500       .  S
C79          C80   1.366       .  A
C79          H82   1.083       .  S
C80          C81   1.385       .  A
C80        H1025   1.083       .  S
C81        C1728   1.499       .  S
H83        C1022   1.083       .  S
N84          C85   1.377       .  A
N84        C1030   1.382       .  A
N84        N1102   1.441       .  S
C85          C86   1.375       .  A
C85         C758   1.491       .  S
C86        C1029   1.352       .  A
C86          H89   1.083       .  S
C87          C88   1.381       .  A
C87        C1028   1.348   1_554  A
C87          H90   1.083       .  S
C88        N1026   1.379   1_554  A
C88         C723   1.500       .  S
O91        Zr103   2.434       .  S
O91          C93   1.285       .  A
O92        Zr129   2.439   1_455  S
O92          C93   1.289       .  A
C93         C639   1.480       .  S
O94        Zr106   2.456       .  S
O94          C96   1.290       .  A
O95        Zr130   2.439   1_455  S
O95          C96   1.289       .  A
C96         C674   1.486       .  S
O97        Zr106   2.452       .  S
O97          C99   1.290       .  A
O98        Zr129   2.426   1_455  S
O98          C99   1.287       .  A
C99         C695   1.503       .  S
O100       Zr103   2.454       .  S
O100        C102   1.291       .  A
O101       Zr130   2.430   1_455  S
O101        C102   1.288       .  A
C102        C618   1.504       .  S
Zr103       O104   2.434       .  S
Zr103       O105   2.437       .  S
Zr103       O109   2.372       .  S
Zr103       O110   2.356       .  S
Zr103       O133   2.370   1_455  S
Zr103       O135   2.374   1_455  S
O104        H147   0.990       .  S
O105        H146   0.989       .  S
O105        H150   0.990       .  S
Zr106       O107   2.436       .  S
Zr106       O108   2.434       .  S
Zr106       O110   2.375       .  S
Zr106       O109   2.369       .  S
Zr106       O134   2.376   1_455  S
Zr106       O136   2.377   1_455  S
O107        H148   0.990       .  S
O107        H151   0.990       .  S
O108        H141   0.990   1_455  S
O109       Zr129   2.383   1_455  S
O110       Zr130   2.383   1_455  S
O110        H137   0.961       .  S
O111       Zr123   2.419       .  S
O111        C113   1.283       .  A
O112       Zr130   2.446       .  S
O112        C113   1.291       .  A
C113        C562   1.484       .  S
O114       Zr126   2.444       .  S
O114        C116   1.288       .  A
O115       Zr129   2.434       .  S
O115        C116   1.289       .  A
C116        C527   1.487       .  S
O117       Zr126   2.458       .  S
O117        C119   1.292       .  A
O118       Zr130   2.425       .  S
O118        C119   1.288       .  A
C119        C499   1.501       .  S
O120       Zr123   2.436       .  S
O120        C122   1.286       .  A
O121       Zr129   2.446       .  S
O121        C122   1.291       .  A
C122        C590   1.511       .  S
Zr123       O124   2.434       .  S
Zr123       O125   2.434       .  S
Zr123       O131   2.376       .  S
Zr123       O132   2.364       .  S
Zr123       O135   2.374       .  S
Zr123       O133   2.376       .  S
O124        H144   0.990       .  S
O124        H149   0.989       .  S
O125        H145   0.990       .  S
Zr126       O127   2.434       .  S
Zr126       O128   2.432       .  S
Zr126       O132   2.378       .  S
Zr126       O131   2.369       .  S
Zr126       O136   2.375       .  S
Zr126       O134   2.369       .  S
O127        H143   0.990       .  S
O128        H142   0.990       .  S
O128        H152   0.990       .  S
Zr129       O132   2.375       .  S
Zr129       O134   2.390       .  S
Zr129       O135   2.385       .  S
Zr130       O131   2.384       .  S
Zr130       O133   2.384       .  S
Zr130       O136   2.386       .  S
O131        H139   0.965       .  S
O134        H138   0.966       .  S
O135        H140   0.966       .  S
N153        C154   1.365   1_556  A
N153       C1099   1.375       .  A
N153       N1192   1.432       .  S
C154        C155   1.385       .  A
C154        C611   1.503       .  S
C155       C1098   1.365   1_554  A
C155        H158   1.083       .  S
C156        C157   1.381       .  A
C156       C1097   1.369       .  A
C156        H159   1.083       .  S
C157       N1095   1.373       .  A
C157        C646   1.501       .  S
N160        C161   1.380   1_556  A
N160       C1106   1.377       .  A
N160       N1026   1.442       .  S
C161        C162   1.377       .  A
C161        C555   1.489       .  S
C162       C1105   1.349   1_554  A
C162        H165   1.083       .  S
C163        C164   1.384       .  A
C163       C1104   1.349       .  A
C163        H166   1.083       .  S
C164       N1102   1.383       .  A
C164        C583   1.507       .  S
N167        C171   1.367       .  A
N167       C1110   1.366       .  A
N167        N257   1.432       .  S
C168       N1109   1.368   1_554  A
C168        C169   1.383       .  A
C168        C506   1.504       .  S
C169       C1112   1.366   1_554  A
C169        H172   1.082       .  S
C170        C171   1.381       .  A
C170       C1111   1.366       .  A
C170        H173   1.083       .  S
C171        C534   1.493       .  S
N174        C178   1.363       .  A
N174       C1117   1.368       .  A
C175       N1116   1.369   1_554  A
C175        C176   1.384       .  A
C175        C667   1.502       .  S
C176       C1119   1.370   1_554  A
C176        H179   1.083       .  S
C177        C178   1.382       .  A
C177       C1118   1.368       .  A
C177        H180   1.082       .  S
C178        C702   1.500       .  S
O181       Zr193   2.442       .  S
O181        C183   1.288       .  A
O182       Zr219   2.424       .  S
O182        C183   1.287       .  A
C183        C415   1.486       .  S
O184       Zr196   2.467       .  S
O184        C186   1.294       .  A
O185       Zr220   2.437       .  S
O185        C186   1.289       .  A
C186        C443   1.516       .  S
O187       Zr196   2.481       .  S
O187        C189   1.296       .  A
O188       Zr219   2.413       .  S
O188        C189   1.284       .  A
C189        C478   1.510       .  S
O190       Zr193   2.447       .  S
O190        C192   1.287       .  A
O191       Zr220   2.430       .  S
O191        C192   1.287       .  A
C192        C387   1.481       .  S
Zr193       O194   2.433       .  S
Zr193       O195   2.436       .  S
Zr193       O199   2.373       .  S
Zr193       O200   2.373       .  S
Zr193       O223   2.366       .  S
Zr193       O225   2.366       .  S
O194        H237   0.990       .  S
O195        H236   0.990       .  S
O195        H240   0.990       .  S
Zr196       O197   2.428       .  S
Zr196       O198   2.433       .  S
Zr196       O200   2.374       .  S
Zr196       O199   2.361       .  S
Zr196       O224   2.373       .  S
Zr196       O226   2.385       .  S
O197        H238   0.989       .  S
O197        H241   0.989       .  S
O198        H231   0.990       .  S
O199       Zr219   2.376       .  S
O200       Zr220   2.384       .  S
O200        H227   0.966       .  S
O201       Zr213   2.454       .  S
O201        C203   1.291       .  A
O202       Zr220   2.429       .  S
O202        C203   1.288       .  A
C203        C331   1.503       .  S
O204       Zr216   2.425       .  S
O204        C206   1.284       .  A
O205       Zr219   2.440       .  S
O205        C206   1.289       .  A
C206        C303   1.479       .  S
O207       Zr216   2.435       .  S
O207        C209   1.285       .  A
O208       Zr220   2.440       .  S
O208        C209   1.288       .  A
C209        C282   1.481       .  S
O210       Zr213   2.460       .  S
O210        C212   1.292       .  A
O211       Zr219   2.423       .  S
O211        C212   1.286       .  A
C212        C366   1.489       .  S
Zr213       O214   2.431       .  S
Zr213       O215   2.434       .  S
Zr213       O221   2.374       .  S
Zr213       O222   2.371       .  S
Zr213       O225   2.373       .  S
Zr213       O223   2.381       .  S
O214        H234   0.989       .  S
O214        H239   0.990       .  S
O215        H235   0.990       .  S
Zr216       O217   2.434       .  S
Zr216       O218   2.435       .  S
Zr216       O222   2.378       .  S
Zr216       O221   2.369       .  S
Zr216       O226   2.372       .  S
Zr216       O224   2.374       .  S
O217        H233   0.989       .  S
O218        H232   0.990       .  S
O218        H242   0.990       .  S
Zr219       O222   2.377       .  S
Zr219       O224   2.384       .  S
Zr219       O225   2.389       .  S
Zr220       O221   2.386       .  S
Zr220       O223   2.388       .  S
Zr220       O226   2.386       .  S
O221        H229   0.967       .  S
O224        H228   0.967       .  S
O225        H230   0.965       .  S
N243        C247   1.364       .  A
N243       C1186   1.374       .  A
C244       N1185   1.376   1_554  A
C244       C1187   1.381       .  A
C244        C471   1.507       .  S
C245        C246   1.367       .  A
C245       C1186   1.378       .  A
C245       H1190   1.083       .  S
C246        C247   1.387       .  A
C246        H249   1.082       .  S
C247        C450   1.506       .  S
H248       C1187   1.083       .  S
N250        C251   1.361       .  A
N250       C1196   1.376       .  A
N250       N1095   1.432       .  S
C251        C252   1.385       .  A
C251        C275   1.502       .  S
C252        C253   1.371       .  A
C252        H255   1.082       .  S
C253       C1196   1.380       .  A
C253       H1198   1.082       .  S
C254       N1192   1.374   1_554  A
C254       C1195   1.380       .  A
C254        C310   1.502       .  S
H256       C1195   1.083       .  S
N257        C258   1.369       .  A
N257       C1203   1.367       .  A
C258        C259   1.382       .  A
C258        C394   1.495       .  S
C259        C260   1.366       .  A
C259        H262   1.083       .  S
C260       C1203   1.382       .  A
C260       H1205   1.082       .  S
C261       N1199   1.366   1_554  A
C261       C1202   1.382       .  A
C261        C422   1.502       .  S
H263       C1202   1.082       .  S
N264        C268   1.372       .  A
N264        C265   1.358       .  A
N264        N943   1.431       .  S
C265        C266   1.385       .  A
C265        C338   1.500       .  S
C266        C267   1.370       .  A
C266        H269   1.082       .  S
C267        C268   1.381       .  A
C267        H270   1.083       .  S
C268       C1301   1.499       .  S
C271        C272   1.410       .  A
C271        C276   1.413       .  A
C271        C289   1.450       .  S
C272        C273   1.408       .  A
C272        C277   1.500       .  S
C273        C274   1.412       .  A
C273        C278   1.451       .  S
C274        C275   1.421       .  A
C274        C290   1.449       .  S
C275        C276   1.417       .  A
C276        C279   1.449       .  S
C277        C280   1.412       .  A
C277        C284   1.414       .  A
C278        N295   1.157       .  T
C279        N297   1.156       .  T
C280        C281   1.410       .  A
C280        C285   1.449       .  S
C281        C282   1.412       .  A
C281        C287   1.452       .  S
C282        C283   1.410       .  A
C283        C284   1.413       .  A
C283        C286   1.449       .  S
C284        C288   1.450       .  S
C285        N292   1.157       .  T
C286        N293   1.157       .  T
C287        N291   1.157       .  T
C288        N294   1.157       .  T
C289        N298   1.157       .  T
C290        N296   1.158       .  T
C299        C300   1.415       .  A
C299        C304   1.408       .  A
C299        C317   1.451       .  S
C300        C301   1.411       .  A
C300        C305   1.499       .  S
C301        C302   1.411       .  A
C301        C306   1.446       .  S
C302        C303   1.411       .  A
C302        C318   1.452       .  S
C303        C304   1.408       .  A
C304        C307   1.450       .  S
C305        C308   1.411       .  A
C305        C312   1.407       .  A
C306        N323   1.156       .  T
C307        N325   1.157       .  T
C308        C309   1.416       .  A
C308        C313   1.450       .  S
C309        C310   1.419       .  A
C309        C315   1.449       .  S
C310        C311   1.417       .  A
C311        C312   1.408       .  A
C311       C1256   1.448       .  S
C312        C316   1.452       .  S
C313        N320   1.157       .  T
C314       C1253   1.448       .  S
C314        N321   1.157       .  T
C315        N319   1.157       .  T
C316        N322   1.157       .  T
C317        N326   1.157       .  T
C318        N324   1.157       .  T
C327        C328   1.410       .  A
C327        C332   1.413       .  A
C327        C345   1.452       .  S
C328        C329   1.405       .  A
C328        C333   1.498       .  S
C329        C330   1.410       .  A
C329        C334   1.450       .  S
C330        C331   1.422       .  A
C330        C346   1.449       .  S
C331        C332   1.423       .  A
C332        C335   1.451       .  S
C333        C336   1.410       .  A
C333        C340   1.408       .  A
C334        N351   1.156       .  T
C335        N353   1.157       .  T
C336        C337   1.410       .  A
C336        C341   1.449       .  S
C337        C338   1.415       .  A
C337        C343   1.451       .  S
C338        C339   1.423       .  A
C339        C340   1.411       .  A
C339        C342   1.450       .  S
C340        C344   1.453       .  S
C341        N348   1.157       .  T
C342        N349   1.158       .  T
C343        N347   1.157       .  T
C344        N350   1.157       .  T
C345        N354   1.157       .  T
C346        N352   1.156       .  T
C355        C356   1.414       .  A
C355        C360   1.416       .  A
C355        C373   1.449       .  S
C356        C357   1.410       .  A
C356        C361   1.508       .  S
C357        C358   1.412       .  A
C357        C362   1.453       .  S
C358        C359   1.426       .  A
C358       C1316   1.452       .  S
C359        C360   1.412       .  A
C359       C1210   1.504       .  S
C360        C363   1.448       .  S
C361        C364   1.414       .  A
C361        C368   1.415       .  A
C362        N379   1.157       .  T
C363        N381   1.157       .  T
C364        C365   1.413       .  A
C364        C369   1.451       .  S
C365        C366   1.413       .  A
C365        C371   1.449       .  S
C366        C367   1.413       .  A
C367        C368   1.412       .  A
C367        C370   1.451       .  S
C368        C372   1.451       .  S
C369        N376   1.157       .  T
C370        N377   1.157       .  T
C371        N375   1.156       .  T
C372        N378   1.157       .  T
C373        N382   1.157       .  T
C374       C1300   1.451       .  S
C374        N380   1.158       .  T
C383        C384   1.417       .  A
C383        C388   1.415       .  A
C383        C401   1.450       .  S
C384        C385   1.412       .  A
C384        C389   1.503       .  S
C385        C386   1.410       .  A
C385        C390   1.447       .  S
C386        C387   1.410       .  A
C386        C402   1.451       .  S
C387        C388   1.410       .  A
C388        C391   1.450       .  S
C389        C392   1.408       .  A
C389        C396   1.413       .  A
C390        N407   1.156       .  T
C391        N409   1.157       .  T
C392        C393   1.409       .  A
C392        C397   1.453       .  S
C393        C394   1.419       .  A
C393        C399   1.449       .  S
C394        C395   1.415       .  A
C395        C396   1.417       .  A
C395        C398   1.449       .  S
C396        C400   1.448       .  S
C397        N404   1.157       .  T
C398        N405   1.157       .  T
C399        N403   1.157       .  T
C400        N406   1.157       .  T
C401        N410   1.157       .  T
C402        N408   1.157       .  T
C411        C412   1.408       .  A
C411        C416   1.411       .  A
C411        C429   1.449       .  S
C412        C413   1.411       .  A
C412        C417   1.494       .  S
C413        C414   1.409       .  A
C413        C418   1.452       .  S
C414        C415   1.414       .  A
C414        C430   1.451       .  S
C415        C416   1.417       .  A
C416        C419   1.451       .  S
C417        C420   1.407       .  A
C417        C424   1.406       .  A
C418        N435   1.157       .  T
C419        N437   1.157       .  T
C420        C421   1.412       .  A
C420        C425   1.450       .  S
C421        C422   1.422       .  A
C421        C427   1.449       .  S
C422        C423   1.420       .  A
C423        C424   1.408       .  A
C423        C426   1.451       .  S
C424        C428   1.451       .  S
C425        N432   1.157       .  T
C426        N433   1.157       .  T
C427       N1373   1.158   1_554  T
C428        N434   1.157       .  T
C429        N438   1.157       .  T
C430        N436   1.157       .  T
N431       C1369   1.158       .  T
C439        C440   1.411       .  A
C439        C444   1.416       .  A
C439        C457   1.453       .  S
C440        C441   1.406       .  A
C440        C445   1.506       .  S
C441        C442   1.414       .  A
C441        C446   1.452       .  S
C442        C443   1.425       .  A
C442        C458   1.448       .  S
C443        C444   1.427       .  A
C444        C447   1.451       .  S
C445        C448   1.411       .  A
C445        C452   1.410       .  A
C446        N463   1.157       .  T
C447        N465   1.158       .  T
C448        C449   1.412       .  A
C448        C453   1.450       .  S
C449        C450   1.417       .  A
C449        C455   1.451       .  S
C450        C451   1.422       .  A
C451        C452   1.414       .  A
C451        C454   1.450       .  S
C452        C456   1.452       .  S
C453        N460   1.157       .  T
C454        N461   1.158       .  T
C455        N459   1.157       .  T
C456        N462   1.157       .  T
C457        N466   1.157       .  T
C458        N464   1.156       .  T
C467        C468   1.412       .  A
C467        C472   1.409       .  A
C467        C485   1.452       .  S
C468        C469   1.414       .  A
C468        C473   1.513       .  S
C469        C470   1.419       .  A
C469        C474   1.450       .  S
C470        C471   1.420       .  A
C470        C486   1.449       .  S
C471        C472   1.418       .  A
C472       C1417   1.449       .  S
C473        C476   1.414       .  A
C473        C480   1.412       .  A
C474        N491   1.157       .  T
C475       C1414   1.449       .  S
C475        N493   1.157       .  T
C476        C477   1.413       .  A
C476        C481   1.453       .  S
C477        C478   1.423       .  A
C477        C483   1.451       .  S
C478        C479   1.419       .  A
C479        C480   1.418       .  A
C479        C482   1.449       .  S
C480        C484   1.448       .  S
C481        N488   1.157       .  T
C482        N489   1.157       .  T
C483        N487   1.158       .  T
C484        N490   1.156       .  T
C485        N494   1.157       .  T
C486        N492   1.157       .  T
C495        C496   1.407       .  A
C495        C500   1.416       .  A
C495        C513   1.450       .  S
C496        C497   1.408       .  A
C496        C501   1.496       .  S
C497        C498   1.408       .  A
C497        C502   1.454       .  S
C498        C499   1.422       .  A
C498        C514   1.451       .  S
C499        C500   1.422       .  A
C500        C503   1.449       .  S
C501        C504   1.407       .  A
C501        C508   1.407       .  A
C502        N519   1.157       .  T
C503        N521   1.157       .  T
C504        C505   1.412       .  A
C504        C509   1.451       .  S
C505        C506   1.421       .  A
C505        C511   1.448       .  S
C506        C507   1.420       .  A
C507        C508   1.409       .  A
C507        C510   1.451       .  S
C508        C512   1.451       .  S
C509        N516   1.157       .  T
C510       N1459   1.157       .  T
C511        N515   1.158       .  T
C512        N518   1.157       .  T
C513        N522   1.157       .  T
C514        N520   1.157       .  T
N517       C1452   1.157       .  T
C523        C524   1.411       .  A
C523        C528   1.412       .  A
C523        C541   1.448       .  S
C524        C525   1.414       .  A
C524        C529   1.501       .  S
C525        C526   1.412       .  A
C525        C530   1.452       .  S
C526        C527   1.413       .  A
C526        C542   1.450       .  S
C527        C528   1.414       .  A
C528        C531   1.451       .  S
C529        C532   1.413       .  A
C529        C536   1.408       .  A
C530        N547   1.157       .  T
C531        N549   1.157       .  T
C532        C533   1.416       .  A
C532        C537   1.448       .  S
C533        C534   1.413       .  A
C533        C539   1.449       .  S
C534        C535   1.419       .  A
C535        C536   1.409       .  A
C535        C538   1.450       .  S
C536        C540   1.453       .  S
C537        N544   1.157       .  T
C538       N1487   1.157       .  T
C539        N543   1.157       .  T
C540        N546   1.157       .  T
C541        N550   1.157       .  T
C542        N548   1.157       .  T
N545       C1480   1.157       .  T
C551        C552   1.406       .  A
C551        C556   1.409       .  A
C551        C569   1.452       .  S
C552        C553   1.407       .  A
C552        C557   1.493       .  S
C553        C554   1.408       .  A
C553        C558   1.451       .  S
C554        C555   1.418       .  A
C554        C570   1.450       .  S
C555        C556   1.420       .  A
C556        C559   1.449       .  S
C557        C560   1.407       .  A
C557        C564   1.414       .  A
C558        N575   1.157       .  T
C559        N577   1.157   1_554  T
C560        C561   1.412       .  A
C560        C565   1.450       .  S
C561        C562   1.419       .  A
C561        C567   1.450       .  S
C562        C563   1.410       .  A
C563        C564   1.406       .  A
C563        C566   1.450       .  S
C564        C568   1.453       .  S
C565        N572   1.157       .  T
C566        N573   1.156       .  T
C567        N571   1.157       .  T
C568        N574   1.157       .  T
C569        N578   1.157       .  T
C570        N576   1.157       .  T
C579        C580   1.406       .  A
C579        C584   1.414       .  A
C579        C597   1.452       .  S
C580        C581   1.406       .  A
C580        C585   1.499       .  S
C581        C582   1.412       .  A
C581        C586   1.451       .  S
C582        C583   1.427       .  A
C582        C598   1.453       .  S
C583        C584   1.418       .  A
C584        C587   1.439       .  S
C585        C588   1.409       .  A
C585        C592   1.405       .  A
C586        N603   1.157       .  T
C587        N605   1.155       .  T
C588        C589   1.411       .  A
C588        C593   1.453       .  S
C589        C590   1.423       .  A
C589        C595   1.451       .  S
C590        C591   1.429       .  A
C591        C592   1.415       .  A
C591        C594   1.451       .  S
C592        C596   1.452       .  S
C593        N600   1.157       .  T
C594        N601   1.157       .  T
C595        N599   1.157       .  T
C596        N602   1.157       .  T
C597        N606   1.157       .  T
C598       N1546   1.158       .  T
N604       C1540   1.157       .  T
C607        C608   1.409       .  A
C607        C612   1.414       .  A
C607        C625   1.451       .  S
C608        C609   1.410       .  A
C608        C613   1.502       .  S
C609        C610   1.413       .  A
C609        C614   1.449       .  S
C610        C611   1.416       .  A
C610        C626   1.450       .  S
C611        C612   1.419       .  A
C612        C615   1.448       .  S
C613        C616   1.409       .  A
C613        C620   1.411       .  A
C614        N631   1.157       .  T
C615        N633   1.158       .  T
C616        C617   1.415       .  A
C616        C621   1.449       .  S
C617        C618   1.421       .  A
C617        C623   1.451       .  S
C618        C619   1.420       .  A
C619        C620   1.413       .  A
C619        C622   1.450       .  S
C620        C624   1.452       .  S
C621        N628   1.157       .  T
C622        N629   1.157       .  T
C623        N627   1.157       .  T
C624        N630   1.157       .  T
C625        N634   1.157       .  T
C626        N632   1.157       .  T
C635        C636   1.416       .  A
C635        C640   1.411       .  A
C635        C653   1.452       .  S
C636        C637   1.414       .  A
C636        C641   1.502       .  S
C637        C638   1.412       .  A
C637        C642   1.447       .  S
C638        C639   1.409       .  A
C638        C654   1.451       .  S
C639        C640   1.411       .  A
C640        C643   1.451       .  S
C641        C644   1.410       .  A
C641        C648   1.411       .  A
C642        N659   1.157       .  T
C643        N661   1.157       .  T
C644        C645   1.412       .  A
C644        C649   1.453       .  S
C645        C646   1.420       .  A
C645       C1593   1.450       .  S
C646        C647   1.413       .  A
C647        C648   1.412       .  A
C647        C650   1.447       .  S
C648        C652   1.449       .  S
C649        N656   1.157       .  T
C650        N657   1.157       .  T
C651       C1587   1.448       .  S
C651        N655   1.157       .  T
C652        N658   1.157       .  T
C653        N662   1.157       .  T
C654        N660   1.157       .  T
C663        C664   1.411       .  A
C663        C668   1.414       .  A
C663        C681   1.452       .  S
C664        C665   1.419       .  A
C664        C669   1.514       .  S
C665        C666   1.419       .  A
C665        C670   1.449       .  S
C666        C667   1.412       .  A
C666        C682   1.450       .  S
C667        C668   1.422       .  A
C668        C671   1.451       .  S
C669        C672   1.416       .  A
C669        C676   1.421       .  A
C670        N687   1.157       .  T
C671       N1631   1.158   1_554  T
C672        C673   1.411       .  A
C672        C677   1.451       .  S
C673        C674   1.411       .  A
C673        C679   1.452       .  S
C674        C675   1.409       .  A
C675        C676   1.418       .  A
C675        C678   1.451       .  S
C676        C680   1.449       .  S
C677        N684   1.157       .  T
C678        N685   1.157       .  T
C679        N683   1.157       .  T
C680        N686   1.157       .  T
C681        N690   1.157       .  T
C682        N688   1.157       .  T
N689       C1613   1.158       .  T
C691        C692   1.405       .  A
C691        C696   1.413       .  A
C691        C709   1.451       .  S
C692        C693   1.409       .  A
C692        C697   1.494       .  S
C693        C694   1.410       .  A
C693        C698   1.453       .  S
C694        C695   1.423       .  A
C694        C710   1.451       .  S
C695        C696   1.424       .  A
C696        C699   1.450       .  S
C697        C700   1.407       .  A
C697        C704   1.407       .  A
C698        N715   1.157       .  T
C699        N717   1.157       .  T
C700        C701   1.412       .  A
C700        C705   1.451       .  S
C701        C702   1.422       .  A
C701        C707   1.450       .  S
C702        C703   1.418       .  A
C703        C704   1.408       .  A
C703        C706   1.451       .  S
C704        C708   1.451       .  S
C705        N712   1.157       .  T
C706        N713   1.157       .  T
C707        N711   1.158       .  T
C708        N714   1.157       .  T
C709        N718   1.157       .  T
C710        N716   1.157       .  T
C719        C720   1.408       .  A
C719        C724   1.414       .  A
C719        C737   1.451       .  S
C720        C721   1.405       .  A
C720        C725   1.497       .  S
C721        C722   1.408       .  A
C721        C726   1.451       .  S
C722        C723   1.423       .  A
C722        C738   1.452       .  S
C723        C724   1.418       .  A
C724        C727   1.444       .  S
C725        C728   1.412       .  A
C725        C732   1.404       .  A
C726        N743   1.157       .  T
C727       N1687   1.156       .  T
C728        C729   1.412       .  A
C728        C733   1.452       .  S
C729        C730   1.420       .  A
C729        C735   1.451       .  S
C730        C731   1.425       .  A
C731        C732   1.411       .  A
C731        C734   1.450       .  S
C732        C736   1.451       .  S
C733        N740   1.157       .  T
C734        N741   1.157       .  T
C735        N739   1.157       .  T
C736        N742   1.157       .  T
C737        N746   1.157       .  T
C738        N744   1.157       .  T
N745       C1669   1.154       .  T
C747        C748   1.412       .  A
C747        C752   1.408       .  A
C747        C765   1.452       .  S
C748        C749   1.409       .  A
C748        C753   1.496       .  S
C749        C750   1.414       .  A
C749        C754   1.450       .  S
C750        C751   1.417       .  A
C750        C766   1.450       .  S
C751        C752   1.412       .  A
C752        C755   1.451       .  S
C753        C756   1.409       .  A
C753        C760   1.407       .  A
C754        N771   1.157       .  T
C755        N773   1.157       .  T
C756        C757   1.411       .  A
C756        C761   1.450       .  S
C757        C758   1.417       .  A
C757        C763   1.450       .  S
C758        C759   1.419       .  A
C759        C760   1.409       .  A
C759        C762   1.449       .  S
C760        C764   1.453       .  S
C761        N768   1.157       .  T
C762        N769   1.157       .  T
C763        N767   1.157       .  T
C764        N770   1.157       .  T
C765        N774   1.157       .  T
C766        N772   1.157       .  T
C775        C776   1.412       .  A
C775        C780   1.413       .  A
C775        C793   1.452       .  S
C776        C777   1.409       .  A
C776        C781   1.503       .  S
C777        C778   1.415       .  A
C777        C782   1.450       .  S
C778        C779   1.419       .  A
C778        C794   1.449       .  S
C779        C780   1.418       .  A
C780        C783   1.450       .  S
C781        C784   1.411       .  A
C781        C788   1.410       .  A
C782        N799   1.157       .  T
C783        N801   1.156       .  T
C784        C785   1.414       .  A
C784        C789   1.451       .  S
C785        C786   1.416       .  A
C785        C791   1.447       .  S
C786        C787   1.414       .  A
C786       C1023   1.498       .  S
C787        C788   1.412       .  A
C787        C790   1.450       .  S
C788        C792   1.449       .  S
C789        N796   1.157       .  T
C790        N797   1.157       .  T
C791       N1737   1.158       .  T
C792        N798   1.157       .  T
C793        N802   1.157       .  T
C794        N800   1.157       .  T
N795       C1733   1.158       .  T
C803        C804   1.407       .  A
C803        C808   1.416       .  A
C803        C821   1.450       .  S
C804        C805   1.411       .  A
C804        C809   1.501       .  S
C805        C806   1.411       .  A
C805        C810   1.453       .  S
C806        C807   1.418       .  A
C806        C822   1.449       .  S
C807        C808   1.422       .  A
C808        C811   1.450       .  S
C809        C812   1.406       .  A
C809        C816   1.409       .  A
C810        N827   1.157       .  T
C811        N829   1.157       .  T
C812        C813   1.410       .  A
C812        C817   1.453       .  S
C813        C814   1.419       .  A
C813        C819   1.447       .  S
C814        C815   1.421       .  A
C815        C816   1.414       .  A
C815        C818   1.450       .  S
C816        C820   1.451       .  S
C817        N824   1.157       .  T
C818        N825   1.157       .  T
C819        N823   1.157       .  T
C820        N826   1.157       .  T
C821        N830   1.157       .  T
C822        N828   1.156       .  T
C831        C832   1.409       .  A
C831        C836   1.411       .  A
C831        C849   1.453       .  S
C832        C833   1.411       .  A
C832        C837   1.503       .  S
C833        C834   1.417       .  A
C833        C838   1.449       .  S
C834        C835   1.415       .  A
C834        C850   1.446       .  S
C835        C836   1.420       .  A
C836        C839   1.449       .  S
C837        C840   1.416       .  A
C837        C844   1.411       .  A
C838        N855   1.157       .  T
C839       N1799   1.157   1_554  T
C840        C841   1.413       .  A
C840        C845   1.450       .  S
C841        C842   1.410       .  A
C841        C847   1.451   1_565  S
C842        C843   1.414       .  A
C843        C844   1.412       .  A
C843        C846   1.452       .  S
C844        C848   1.448       .  S
C845        N852   1.157       .  T
C846        N853   1.157       .  T
C847        N851   1.157       .  T
C848        N854   1.157       .  T
C849        N858   1.157       .  T
C850        N856   1.155       .  T
N857       C1781   1.157       .  T
C859        C860   1.408       .  A
C859        C864   1.411       .  A
C859        C877   1.450       .  S
C860        C861   1.408       .  A
C860        C865   1.500       .  S
C861        C862   1.414       .  A
C861        C866   1.450       .  S
C862        C863   1.423       .  A
C862        C878   1.449       .  S
C863        C864   1.420       .  A
C864        C867   1.452       .  S
C865        C868   1.412       .  A
C865        C872   1.409       .  A
C866        N883   1.157       .  T
C867        N885   1.157       .  T
C868        C869   1.412       .  A
C868        C873   1.451       .  S
C869        C870   1.415       .  A
C869        C875   1.451   1_565  S
C870        C871   1.418       .  A
C871        C872   1.414       .  A
C871        C874   1.450       .  S
C872        C876   1.451       .  S
C873        N880   1.157   1_565  T
C874        N881   1.157       .  T
C875        N879   1.157       .  T
C876        N882   1.157       .  T
C877        N886   1.157       .  T
C878        N884   1.158       .  T
C887        C888   1.409       .  A
C887        C892   1.416       .  A
C887        C905   1.452       .  S
C888        C889   1.411       .  A
C888        C893   1.509       .  S
C889        C890   1.416       .  A
C889        C894   1.449       .  S
C890        C891   1.419       .  A
C890        C906   1.449       .  S
C891        C892   1.423       .  A
C892        C895   1.447       .  S
C893        C896   1.411       .  A
C893        C900   1.408       .  A
C894        N911   1.157       .  T
C895       N1855   1.156   1_554  T
C896        C897   1.417       .  A
C896        C901   1.452       .  S
C897        C898   1.425       .  A
C897        C903   1.450       .  S
C898        C899   1.424       .  A
C899        C900   1.417       .  A
C899        C902   1.450       .  S
C900        C904   1.449       .  S
C901        N908   1.157       .  T
C902        N909   1.157       .  T
C903        N907   1.157       .  T
C904        N910   1.157       .  T
C905        N914   1.157   1_565  T
C906        N912   1.156       .  T
N913       C1837   1.158       .  T
C915        C916   1.408       .  A
C915        C920   1.420       .  A
C915        C933   1.450       .  S
C916        C917   1.411       .  A
C916        C921   1.508       .  S
C917        C918   1.413       .  A
C917        C922   1.453       .  S
C918        C919   1.425       .  A
C918        C934   1.451       .  S
C919        C920   1.427       .  A
C920        C923   1.450       .  S
C921        C924   1.407       .  A
C921        C928   1.413       .  A
C922        N939   1.157       .  T
C923        N941   1.157       .  T
C924        C925   1.406       .  A
C924        C929   1.451       .  S
C925        C926   1.415       .  A
C925        C931   1.445       .  S
C926        C927   1.421       .  A
C927        C928   1.419       .  A
C927        C930   1.450       .  S
C928        C932   1.449       .  S
C929        N936   1.157       .  T
C930        N937   1.157       .  T
C931       N1877   1.157       .  T
C932        N938   1.157       .  T
C933        N942   1.157       .  T
C934        N940   1.157   1_565  T
N935       C1873   1.158       .  T
N943        C944   1.362       .  A
C944        C945   1.386       .  A
C944       C1833   1.501       .  S
C945        H948   1.083       .  S
C946        C947   1.385       .  A
C946        H949   1.083       .  S
C947       C1868   1.516       .  S
N950        C954   1.369       .  A
N950       N1116   1.433       .  S
C951        C952   1.382       .  A
C951       C1777   1.496       .  S
C952        H955   1.083       .  S
C953        C954   1.383       .  A
C953        H956   1.082       .  S
C954       C1805   1.509       .  S
O957       Zr969   2.455   1_565  S
O957        C959   1.290       .  A
O958       Zr995   2.440       .  S
O958        C959   1.290   1_545  A
C959       C1812   1.503       .  S
O960       Zr972   2.461   1_565  S
O960        C962   1.292   1_565  A
O961       Zr996   2.423       .  S
O961        C962   1.286       .  A
C962       C1840   1.504   1_545  S
O963       Zr972   2.447   1_565  S
O963        C965   1.288   1_565  A
O964       Zr995   2.435       .  S
O964        C965   1.289       .  A
C965       C1861   1.483   1_545  S
O966       Zr969   2.440   1_565  S
O966        C968   1.287   1_565  A
O967       Zr996   2.432       .  S
O967        C968   1.288       .  A
C968       C1784   1.481   1_545  S
Zr969       O970   2.432   1_545  S
Zr969       O971   2.435       .  S
Zr969       O975   2.370       .  S
Zr969       O976   2.374       .  S
Zr969       O999   2.378       .  S
Zr969      O1001   2.369       .  S
O970       H1013   0.990       .  S
O971       H1012   0.990       .  S
O971       H1016   0.990   1_545  S
Zr972       O973   2.435   1_545  S
Zr972       O974   2.435       .  S
Zr972       O976   2.369       .  S
Zr972       O975   2.377       .  S
Zr972      O1000   2.376       .  S
Zr972      O1002   2.370       .  S
O973       H1014   0.990       .  S
O973       H1017   0.990       .  S
O974       H1007   0.990       .  S
O975       Zr995   2.383       .  S
O976       Zr996   2.390       .  S
O976       H1003   0.966   1_545  S
O977       Zr989   2.461       .  S
O977        C979   1.292       .  A
O978       Zr996   2.430       .  S
O978        C979   1.288       .  A
C979       C1721   1.502       .  S
O980       Zr992   2.450       .  S
O980        C982   1.290       .  A
O981       Zr995   2.434       .  S
O981        C982   1.289       .  A
C982       C1693   1.504       .  S
O983       Zr992   2.445       .  S
O983        C985   1.288       .  A
O984       Zr996   2.444       .  S
O984        C985   1.291       .  A
C985       C1672   1.505       .  S
O986       Zr989   2.449       .  S
O986        C988   1.290       .  A
O987       Zr995   2.444       .  S
O987        C988   1.291       .  A
C988       C1749   1.512       .  S
Zr989       O990   2.435       .  S
Zr989       O991   2.434       .  S
Zr989       O997   2.378       .  S
Zr989       O998   2.377       .  S
Zr989      O1001   2.381       .  S
Zr989       O999   2.371       .  S
O990       H1010   0.990       .  S
O990       H1015   0.990       .  S
O991       H1011   0.990       .  S
Zr992       O993   2.430       .  S
Zr992       O994   2.435       .  S
Zr992       O998   2.371       .  S
Zr992       O997   2.371       .  S
Zr992      O1002   2.374       .  S
Zr992      O1000   2.370       .  S
O993       H1009   0.990       .  S
O994       H1008   0.990       .  S
O994       H1018   0.990       .  S
Zr995       O998   2.381       .  S
Zr995      O1000   2.388       .  S
Zr995      O1001   2.385       .  S
Zr996       O997   2.384       .  S
Zr996       O999   2.384       .  S
Zr996      O1002   2.381       .  S
O997       H1005   0.965       .  S
O1000      H1004   0.965       .  S
O1001      H1006   0.967       .  S
N1019      C1023   1.367   1_556  A
N1019      C1020   1.380       .  A
N1019      N1185   1.432       .  S
C1020      C1021   1.378       .  A
C1020      C1756   1.507       .  S
C1021      C1022   1.363   1_556  A
C1021      H1024   1.083       .  S
C1022      C1023   1.384       .  A
N1026      C1027   1.383       .  A
C1027      C1028   1.377       .  A
C1027      C1700   1.497       .  S
C1028      H1031   1.083       .  S
C1029      C1030   1.386       .  A
C1029      H1032   1.082       .  S
C1030      C1665   1.513       .  S
O1033     Zr1045   2.435       .  S
O1033      C1035   1.286       .  A
O1034     Zr1071   2.445   1_455  S
O1034      C1035   1.290       .  A
C1035      C1581   1.484       .  S
O1036     Zr1048   2.446       .  S
O1036      C1038   1.287       .  A
O1037     Zr1072   2.435   1_455  S
O1037      C1038   1.288       .  A
C1038      C1616   1.481       .  S
O1039     Zr1048   2.447       .  S
O1039      C1041   1.289       .  A
O1040     Zr1071   2.427   1_455  S
O1040      C1041   1.288       .  A
C1041      C1637   1.509       .  S
O1042     Zr1045   2.452       .  S
O1042      C1044   1.290       .  A
O1043     Zr1072   2.405   1_455  S
O1043      C1044   1.283       .  A
C1044      C1560   1.496       .  S
Zr1045     O1046   2.435       .  S
Zr1045     O1047   2.432       .  S
Zr1045     O1051   2.373       .  S
Zr1045     O1052   2.358       .  S
Zr1045     O1075   2.369   1_455  S
Zr1045     O1077   2.366   1_455  S
O1046      H1089   0.990       .  S
O1047      H1088   0.990       .  S
O1047      H1092   0.990       .  S
Zr1048     O1049   2.436       .  S
Zr1048     O1050   2.434       .  S
Zr1048     O1052   2.370       .  S
Zr1048     O1051   2.370       .  S
Zr1048     O1076   2.377   1_455  S
Zr1048     O1078   2.378   1_455  S
O1049      H1090   0.990       .  S
O1049      H1093   0.990       .  S
O1050      H1083   0.990       .  S
O1051     Zr1071   2.384   1_455  S
O1052     Zr1072   2.383   1_455  S
O1052      H1079   0.964       .  S
O1053     Zr1065   2.434       .  S
O1053      C1055   1.286       .  A
O1054     Zr1072   2.434       .  S
O1054      C1055   1.288       .  A
C1055      C1504   1.485       .  S
O1056     Zr1068   2.443       .  S
O1056      C1058   1.288       .  A
O1057     Zr1071   2.445       .  S
O1057      C1058   1.291       .  A
C1058      C1469   1.494       .  S
O1059     Zr1068   2.452       .  S
O1059      C1061   1.290       .  A
O1060     Zr1072   2.421       .  S
O1060      C1061   1.286       .  A
C1061      C1441   1.497       .  S
O1062     Zr1065   2.438       .  S
O1062      C1064   1.287       .  A
O1063     Zr1071   2.443       .  S
O1063      C1064   1.291       .  A
C1064      C1532   1.510       .  S
Zr1065     O1066   2.434       .  S
Zr1065     O1067   2.434       .  S
Zr1065     O1073   2.370       .  S
Zr1065     O1074   2.370       .  S
Zr1065     O1077   2.373       .  S
Zr1065     O1075   2.375       .  S
O1066      H1086   0.990       .  S
O1066      H1091   0.990       .  S
O1067      H1087   0.990       .  S
Zr1068     O1069   2.434       .  S
Zr1068     O1070   2.433       .  S
Zr1068     O1074   2.382       .  S
Zr1068     O1073   2.373       .  S
Zr1068     O1078   2.370       .  S
Zr1068     O1076   2.368       .  S
O1069      H1085   0.990       .  S
O1070      H1084   0.990       .  S
O1070      H1094   0.990       .  S
Zr1071     O1074   2.381       .  S
Zr1071     O1076   2.390       .  S
Zr1071     O1077   2.385       .  S
Zr1072     O1073   2.381       .  S
Zr1072     O1075   2.381       .  S
Zr1072     O1078   2.382       .  S
O1073      H1081   0.965       .  S
O1076      H1080   0.966       .  S
O1077      H1082   0.965       .  S
N1095      C1096   1.358       .  A
C1096      C1097   1.385       .  A
C1096      C1553   1.496       .  S
C1097      H1100   1.083       .  S
C1098      C1099   1.379       .  A
C1098      H1101   1.083       .  S
C1099      C1588   1.503       .  S
N1102      C1103   1.378       .  A
C1103      C1104   1.375       .  A
C1103      C1497   1.490       .  S
C1104      H1107   1.083       .  S
C1105      C1106   1.382       .  A
C1105      H1108   1.083       .  S
C1106      C1525   1.497       .  S
N1109      C1113   1.369       .  A
N1109      N1199   1.431       .  S
C1110      C1111   1.383       .  A
C1110      C1448   1.499       .  S
C1111      H1114   1.082       .  S
C1112      C1113   1.381       .  A
C1112      H1115   1.083       .  S
C1113      C1476   1.496       .  S
N1116      C1120   1.365       .  A
C1117      C1118   1.384       .  A
C1117      C1609   1.499       .  S
C1118      H1121   1.083       .  S
C1119      C1120   1.383       .  A
C1119      H1122   1.082       .  S
C1120      C1644   1.504       .  S
O1123     Zr1135   2.427       .  S
O1123      C1125   1.285       .  A
O1124     Zr1161   2.427       .  S
O1124      C1125   1.287       .  A
C1125      C1357   1.484       .  S
O1126     Zr1138   2.463       .  S
O1126      C1128   1.293       .  A
O1127     Zr1162   2.434       .  S
O1127      C1128   1.289       .  A
C1128      C1385   1.509       .  S
O1129     Zr1138   2.473       .  S
O1129      C1131   1.295       .  A
O1130     Zr1161   2.407       .  S
O1130      C1131   1.283       .  A
C1131      C1420   1.504       .  S
O1132     Zr1135   2.428       .  S
O1132      C1134   1.283       .  A
O1133     Zr1162   2.443       .  S
O1133      C1134   1.289       .  A
C1134      C1329   1.479       .  S
Zr1135     O1136   2.434       .  S
Zr1135     O1137   2.435       .  S
Zr1135     O1141   2.370       .  S
Zr1135     O1142   2.371       .  S
Zr1135     O1165   2.366       .  S
Zr1135     O1167   2.363       .  S
O1136      H1179   0.990       .  S
O1137      H1178   0.990       .  S
O1137      H1182   0.990       .  S
Zr1138     O1139   2.428       .  S
Zr1138     O1140   2.433       .  S
Zr1138     O1142   2.374       .  S
Zr1138     O1141   2.362       .  S
Zr1138     O1166   2.375       .  S
Zr1138     O1168   2.382       .  S
O1139      H1180   0.989       .  S
O1139      H1183   0.989       .  S
O1140      H1173   0.990       .  S
O1141     Zr1161   2.374       .  S
O1142     Zr1162   2.384       .  S
O1142      H1169   0.964       .  S
O1143     Zr1155   2.460       .  S
O1143      C1145   1.292       .  A
O1144     Zr1162   2.433       .  S
O1144      C1145   1.289       .  A
C1145      C1273   1.510       .  S
O1146     Zr1158   2.432       .  S
O1146      C1148   1.285       .  A
O1147     Zr1161   2.444       .  S
O1147      C1148   1.290       .  A
C1148      C1245   1.484       .  S
O1149     Zr1158   2.435       .  S
O1149      C1151   1.285       .  A
O1150     Zr1162   2.441       .  S
O1150      C1151   1.289       .  A
C1151      C1224   1.482       .  S
O1152     Zr1155   2.469       .  S
O1152      C1154   1.293       .  A
O1153     Zr1161   2.414       .  S
O1153      C1154   1.285       .  A
C1154      C1308   1.489       .  S
Zr1155     O1156   2.433       .  S
Zr1155     O1157   2.434       .  S
Zr1155     O1163   2.374       .  S
Zr1155     O1164   2.369       .  S
Zr1155     O1167   2.377       .  S
Zr1155     O1165   2.385       .  S
O1156      H1176   0.990       .  S
O1156      H1181   0.990       .  S
O1157      H1177   0.990       .  S
Zr1158     O1159   2.434       .  S
Zr1158     O1160   2.435       .  S
Zr1158     O1164   2.376       .  S
Zr1158     O1163   2.374       .  S
Zr1158     O1168   2.372       .  S
Zr1158     O1166   2.373       .  S
O1159      H1175   0.990       .  S
O1160      H1174   0.990       .  S
O1160      H1184   0.990       .  S
Zr1161     O1164   2.377       .  S
Zr1161     O1166   2.384       .  S
Zr1161     O1167   2.390       .  S
Zr1162     O1163   2.388       .  S
Zr1162     O1165   2.389       .  S
Zr1162     O1168   2.388       .  S
O1163      H1171   0.964       .  S
O1166      H1170   0.966       .  S
O1167      H1172   0.966       .  S
N1185      C1189   1.362       .  A
C1186      C1413   1.501       .  S
C1187      C1188   1.370   1_554  A
C1188      C1189   1.385       .  A
C1188      H1191   1.083       .  S
C1189      C1392   1.505       .  S
N1192      C1193   1.363       .  A
C1193      C1194   1.385       .  A
C1193      C1217   1.502       .  S
C1194      C1195   1.370   1_556  A
C1194      H1197   1.083       .  S
C1196      C1252   1.506       .  S
N1199      C1200   1.368       .  A
C1200      C1201   1.383       .  A
C1200      C1336   1.496       .  S
C1201      C1202   1.368   1_556  A
C1201      H1204   1.083       .  S
C1203      C1364   1.501       .  S
N1206      C1210   1.368   1_556  A
N1206      C1207   1.369       .  A
C1207      C1208   1.384       .  A
C1207      C1280   1.514       .  S
C1208      C1209   1.371   1_556  A
C1208      H1211   1.082       .  S
C1209      C1210   1.384       .  A
C1209      H1212   1.083       .  S
C1213      C1214   1.413       .  A
C1213      C1218   1.415       .  A
C1213      C1231   1.449       .  S
C1214      C1215   1.413       .  A
C1214      C1219   1.508       .  S
C1215      C1216   1.413       .  A
C1215      C1220   1.452       .  S
C1216      C1217   1.417       .  A
C1216      C1232   1.449       .  S
C1217      C1218   1.415       .  A
C1218      C1221   1.449       .  S
C1219      C1222   1.414       .  A
C1219      C1226   1.418       .  A
C1220      N1237   1.157       .  T
C1221      N1239   1.157       .  T
C1222      C1223   1.410       .  A
C1222      C1227   1.448       .  S
C1223      C1224   1.410       .  A
C1223      C1229   1.452       .  S
C1224      C1225   1.410       .  A
C1225      C1226   1.416       .  A
C1225      C1228   1.451       .  S
C1226      C1230   1.450       .  S
C1227      N1234   1.156       .  T
C1228      N1235   1.158       .  T
C1229      N1233   1.157       .  T
C1230      N1236   1.157       .  T
C1231      N1240   1.157       .  T
C1232      N1238   1.158       .  T
C1241      C1242   1.415       .  A
C1241      C1246   1.412       .  A
C1241      C1259   1.450       .  S
C1242      C1243   1.412       .  A
C1242      C1247   1.505       .  S
C1243      C1244   1.413       .  A
C1243      C1248   1.446       .  S
C1244      C1245   1.412       .  A
C1244      C1260   1.452       .  S
C1245      C1246   1.408       .  A
C1246      C1249   1.450       .  S
C1247      C1250   1.410       .  A
C1247      C1254   1.408       .  A
C1248      N1265   1.156       .  T
C1249      N1267   1.157       .  T
C1250      C1251   1.419       .  A
C1250      C1255   1.449       .  S
C1251      C1252   1.421       .  A
C1251      C1257   1.449       .  S
C1252      C1253   1.416       .  A
C1253      C1254   1.409       .  A
C1254      C1258   1.451       .  S
C1255      N1262   1.157       .  T
C1256      N1263   1.158   1_554  T
C1257      N1261   1.157       .  T
C1258      N1264   1.157       .  T
C1259      N1268   1.157       .  T
C1260      N1266   1.157       .  T
C1269      C1270   1.410       .  A
C1269      C1274   1.414       .  A
C1269      C1287   1.453       .  S
C1270      C1271   1.406       .  A
C1270      C1275   1.502       .  S
C1271      C1272   1.415       .  A
C1271      C1276   1.451       .  S
C1272      C1273   1.425       .  A
C1272      C1288   1.449       .  S
C1273      C1274   1.424       .  A
C1274      C1277   1.451       .  S
C1275      C1278   1.405       .  A
C1275      C1282   1.407       .  A
C1276      N1293   1.157       .  T
C1277      N1295   1.157       .  T
C1278      C1279   1.412       .  A
C1278      C1283   1.452       .  S
C1279      C1280   1.427       .  A
C1279      C1285   1.450       .  S
C1280      C1281   1.425       .  A
C1281      C1282   1.415       .  A
C1281      C1284   1.449       .  S
C1282      C1286   1.452       .  S
C1283      N1290   1.157       .  T
C1284      N1291   1.158       .  T
C1285      N1289   1.158       .  T
C1286      N1292   1.157       .  T
C1287      N1296   1.157       .  T
C1288      N1294   1.157       .  T
C1297      C1298   1.411       .  A
C1297      C1302   1.410       .  A
C1297      C1315   1.450       .  S
C1298      C1299   1.412       .  A
C1298      C1303   1.503       .  S
C1299      C1300   1.412       .  A
C1299      C1304   1.453       .  S
C1300      C1301   1.421       .  A
C1301      C1302   1.413       .  A
C1302      C1305   1.447       .  S
C1303      C1306   1.411       .  A
C1303      C1310   1.416       .  A
C1304      N1321   1.157       .  T
C1305      N1323   1.157       .  T
C1306      C1307   1.410       .  A
C1306      C1311   1.452       .  S
C1307      C1308   1.414       .  A
C1307      C1313   1.445       .  S
C1308      C1309   1.413       .  A
C1309      C1310   1.413       .  A
C1309      C1312   1.451       .  S
C1310      C1314   1.451       .  S
C1311      N1318   1.157       .  T
C1312      N1319   1.157       .  T
C1313      N1317   1.155       .  T
C1314      N1320   1.157       .  T
C1315      N1324   1.157       .  T
C1316      N1322   1.158   1_554  T
C1325      C1326   1.415       .  A
C1325      C1330   1.413       .  A
C1325      C1343   1.450       .  S
C1326      C1327   1.411       .  A
C1326      C1331   1.500       .  S
C1327      C1328   1.410       .  A
C1327      C1332   1.447       .  S
C1328      C1329   1.411       .  A
C1328      C1344   1.451       .  S
C1329      C1330   1.409       .  A
C1330      C1333   1.450       .  S
C1331      C1334   1.408       .  A
C1331      C1338   1.413       .  A
C1332      N1349   1.157       .  T
C1333      N1351   1.157       .  T
C1334      C1335   1.408       .  A
C1334      C1339   1.454       .  S
C1335      C1336   1.420       .  A
C1335      C1341   1.450       .  S
C1336      C1337   1.415       .  A
C1337      C1338   1.417       .  A
C1337      C1340   1.449       .  S
C1338      C1342   1.448       .  S
C1339      N1346   1.157       .  T
C1340      N1347   1.157       .  T
C1341      N1345   1.157       .  T
C1342      N1348   1.157       .  T
C1343      N1352   1.157       .  T
C1344      N1350   1.157       .  T
C1353      C1354   1.407       .  A
C1353      C1358   1.409       .  A
C1353      C1371   1.450       .  S
C1354      C1355   1.412       .  A
C1354      C1359   1.492       .  S
C1355      C1356   1.409       .  A
C1355      C1360   1.451       .  S
C1356      C1357   1.413       .  A
C1356      C1372   1.452       .  S
C1357      C1358   1.417       .  A
C1358      C1361   1.451       .  S
C1359      C1362   1.406       .  A
C1359      C1366   1.406       .  A
C1360      N1377   1.157       .  T
C1361      N1379   1.157       .  T
C1362      C1363   1.409       .  A
C1362      C1367   1.451       .  S
C1363      C1364   1.421       .  A
C1363      C1369   1.449       .  S
C1364      C1365   1.420       .  A
C1365      C1366   1.409       .  A
C1365      C1368   1.451       .  S
C1366      C1370   1.450       .  S
C1367      N1374   1.157       .  T
C1368      N1375   1.157       .  T
C1370      N1376   1.157       .  T
C1371      N1380   1.157       .  T
C1372      N1378   1.157       .  T
C1381      C1382   1.409       .  A
C1381      C1386   1.414       .  A
C1381      C1399   1.452       .  S
C1382      C1383   1.406       .  A
C1382      C1387   1.502       .  S
C1383      C1384   1.414       .  A
C1383      C1388   1.450       .  S
C1384      C1385   1.424       .  A
C1384      C1400   1.448       .  S
C1385      C1386   1.424       .  A
C1386      C1389   1.451       .  S
C1387      C1390   1.410       .  A
C1387      C1394   1.409       .  A
C1388      N1405   1.156       .  T
C1389      N1407   1.157       .  T
C1390      C1391   1.411       .  A
C1390      C1395   1.450       .  S
C1391      C1392   1.416       .  A
C1391      C1397   1.450       .  S
C1392      C1393   1.423       .  A
C1393      C1394   1.414       .  A
C1393      C1396   1.450       .  S
C1394      C1398   1.452       .  S
C1395      N1402   1.157       .  T
C1396      N1403   1.158       .  T
C1397      N1401   1.157       .  T
C1398      N1404   1.157       .  T
C1399      N1408   1.157       .  T
C1400      N1406   1.156       .  T
C1409      C1410   1.411       .  A
C1409      C1414   1.409       .  A
C1409      C1427   1.453       .  S
C1410      C1411   1.412       .  A
C1410      C1415   1.505       .  S
C1411      C1412   1.416       .  A
C1411      C1416   1.451       .  S
C1412      C1413   1.419       .  A
C1412      C1428   1.449       .  S
C1413      C1414   1.417       .  A
C1415      C1418   1.411       .  A
C1415      C1422   1.410       .  A
C1416      N1433   1.157       .  T
C1417      N1435   1.158   1_554  T
C1418      C1419   1.410       .  A
C1418      C1423   1.453       .  S
C1419      C1420   1.422       .  A
C1419      C1425   1.451       .  S
C1420      C1421   1.419       .  A
C1421      C1422   1.415       .  A
C1421      C1424   1.449       .  S
C1422      C1426   1.448       .  S
C1423      N1430   1.157       .  T
C1424      N1431   1.157       .  T
C1425      N1429   1.157       .  T
C1426      N1432   1.156       .  T
C1427      N1436   1.157       .  T
C1428      N1434   1.157       .  T
C1437      C1438   1.405       .  A
C1437      C1442   1.412       .  A
C1437      C1455   1.450       .  S
C1438      C1439   1.407       .  A
C1438      C1443   1.491       .  S
C1439      C1440   1.408       .  A
C1439      C1444   1.454       .  S
C1440      C1441   1.422       .  A
C1440      C1456   1.450       .  S
C1441      C1442   1.421       .  A
C1442      C1445   1.450       .  S
C1443      C1446   1.407       .  A
C1443      C1450   1.406       .  A
C1444      N1461   1.157       .  T
C1445      N1463   1.157       .  T
C1446      C1447   1.410       .  A
C1446      C1451   1.451       .  S
C1447      C1448   1.421       .  A
C1447      C1453   1.449       .  S
C1448      C1449   1.420       .  A
C1449      C1450   1.408       .  A
C1449      C1452   1.452       .  S
C1450      C1454   1.451       .  S
C1451      N1458   1.157       .  T
C1453      N1457   1.158       .  T
C1454      N1460   1.157       .  T
C1455      N1464   1.157       .  T
C1456      N1462   1.157       .  T
C1465      C1466   1.411       .  A
C1465      C1470   1.415       .  A
C1465      C1483   1.449       .  S
C1466      C1467   1.414       .  A
C1466      C1471   1.504       .  S
C1467      C1468   1.414       .  A
C1467      C1472   1.451       .  S
C1468      C1469   1.414       .  A
C1468      C1484   1.449       .  S
C1469      C1470   1.416       .  A
C1470      C1473   1.451       .  S
C1471      C1474   1.413       .  A
C1471      C1478   1.407       .  A
C1472      N1489   1.157       .  T
C1473      N1491   1.157       .  T
C1474      C1475   1.418       .  A
C1474      C1479   1.448       .  S
C1475      C1476   1.415       .  A
C1475      C1481   1.449       .  S
C1476      C1477   1.419       .  A
C1477      C1478   1.410       .  A
C1477      C1480   1.448       .  S
C1478      C1482   1.452       .  S
C1479      N1486   1.157       .  T
C1481      N1485   1.157       .  T
C1482      N1488   1.157       .  T
C1483      N1492   1.157       .  T
C1484      N1490   1.157       .  T
C1493      C1494   1.408       .  A
C1493      C1498   1.413       .  A
C1493      C1511   1.452       .  S
C1494      C1495   1.409       .  A
C1494      C1499   1.501       .  S
C1495      C1496   1.409       .  A
C1495      C1500   1.451       .  S
C1496      C1497   1.417       .  A
C1496      C1512   1.450       .  S
C1497      C1498   1.421       .  A
C1498      C1501   1.450       .  S
C1499      C1502   1.411       .  A
C1499      C1506   1.416       .  A
C1500      N1517   1.157       .  T
C1501      N1519   1.157       .  T
C1502      C1503   1.414       .  A
C1502      C1507   1.449       .  S
C1503      C1504   1.416       .  A
C1503      C1509   1.451       .  S
C1504      C1505   1.410       .  A
C1505      C1506   1.408       .  A
C1505      C1508   1.451       .  S
C1506      C1510   1.453       .  S
C1507      N1514   1.157       .  T
C1508      N1515   1.157       .  T
C1509      N1513   1.157       .  T
C1510      N1516   1.157       .  T
C1511      N1520   1.157       .  T
C1512      N1518   1.157       .  T
C1521      C1522   1.408       .  A
C1521      C1526   1.412       .  A
C1521      C1539   1.451       .  S
C1522      C1523   1.405       .  A
C1522      C1527   1.496       .  S
C1523      C1524   1.408       .  A
C1523      C1528   1.451       .  S
C1524      C1525   1.424       .  A
C1524      C1540   1.453       .  S
C1525      C1526   1.417       .  A
C1526      C1529   1.445       .  S
C1527      C1530   1.408       .  A
C1527      C1534   1.403       .  A
C1528      N1545   1.157       .  T
C1529      N1547   1.156       .  T
C1530      C1531   1.410       .  A
C1530      C1535   1.453       .  S
C1531      C1532   1.424       .  A
C1531      C1537   1.451       .  S
C1532      C1533   1.429       .  A
C1533      C1534   1.414       .  A
C1533      C1536   1.450       .  S
C1534      C1538   1.450       .  S
C1535      N1542   1.157       .  T
C1536      N1543   1.157       .  T
C1537      N1541   1.157       .  T
C1538      N1544   1.157       .  T
C1539      N1548   1.157       .  T
C1549      C1550   1.404       .  A
C1549      C1554   1.408       .  A
C1549      C1567   1.453       .  S
C1550      C1551   1.409       .  A
C1550      C1555   1.490       .  S
C1551      C1552   1.410       .  A
C1551      C1556   1.450       .  S
C1552      C1553   1.415       .  A
C1552      C1568   1.451       .  S
C1553      C1554   1.423       .  A
C1554      C1557   1.449       .  S
C1555      C1558   1.404       .  A
C1555      C1562   1.407       .  A
C1556      N1573   1.157       .  T
C1557      N1575   1.158       .  T
C1558      C1559   1.408       .  A
C1558      C1563   1.447       .  S
C1559      C1560   1.419       .  A
C1559      C1565   1.450       .  S
C1560      C1561   1.424       .  A
C1561      C1562   1.408       .  A
C1561      C1564   1.452       .  S
C1562      C1566   1.453       .  S
C1563      N1570   1.156       .  T
C1564      N1571   1.157       .  T
C1565      N1569   1.157       .  T
C1566      N1572   1.157       .  T
C1567      N1576   1.157       .  T
C1568      N1574   1.157       .  T
C1577      C1578   1.416       .  A
C1577      C1582   1.410       .  A
C1577      C1595   1.451       .  S
C1578      C1579   1.415       .  A
C1578      C1583   1.507       .  S
C1579      C1580   1.415       .  A
C1579      C1584   1.448       .  S
C1580      C1581   1.411       .  A
C1580      C1596   1.450       .  S
C1581      C1582   1.409       .  A
C1582      C1585   1.450       .  S
C1583      C1586   1.410       .  A
C1583      C1590   1.412       .  A
C1584      N1601   1.157       .  T
C1585      N1603   1.157       .  T
C1586      C1587   1.414       .  A
C1586      C1591   1.453       .  S
C1587      C1588   1.420       .  A
C1588      C1589   1.419       .  A
C1589      C1590   1.415       .  A
C1589      C1592   1.449       .  S
C1590      C1594   1.450       .  S
C1591      N1598   1.157       .  T
C1592      N1599   1.157       .  T
C1593      N1597   1.158       .  T
C1594      N1600   1.157       .  T
C1595      N1604   1.157       .  T
C1596      N1602   1.157       .  T
C1605      C1606   1.411       .  A
C1605      C1610   1.412       .  A
C1605      C1623   1.453       .  S
C1606      C1607   1.416       .  A
C1606      C1611   1.508       .  S
C1607      C1608   1.417       .  A
C1607      C1612   1.449       .  S
C1608      C1609   1.411       .  A
C1608      C1624   1.448       .  S
C1609      C1610   1.421       .  A
C1610      C1613   1.451       .  S
C1611      C1614   1.416       .  A
C1611      C1618   1.418       .  A
C1612      N1629   1.157       .  T
C1614      C1615   1.411       .  A
C1614      C1619   1.451       .  S
C1615      C1616   1.411       .  A
C1615      C1621   1.451       .  S
C1616      C1617   1.407       .  A
C1617      C1618   1.413       .  A
C1617      C1620   1.451       .  S
C1618      C1622   1.447       .  S
C1619      N1626   1.157       .  T
C1620      N1627   1.157       .  T
C1621      N1625   1.157       .  T
C1622      N1628   1.157       .  T
C1623      N1632   1.157       .  T
C1624      N1630   1.157       .  T
C1633      C1634   1.406       .  A
C1633      C1638   1.414       .  A
C1633      C1651   1.452       .  S
C1634      C1635   1.407       .  A
C1634      C1639   1.496       .  S
C1635      C1636   1.409       .  A
C1635      C1640   1.453       .  S
C1636      C1637   1.427       .  A
C1636      C1652   1.452       .  S
C1637      C1638   1.427       .  A
C1638      C1641   1.451       .  S
C1639      C1642   1.407       .  A
C1639      C1646   1.407       .  A
C1640      N1657   1.157       .  T
C1641      N1659   1.157       .  T
C1642      C1643   1.411       .  A
C1642      C1647   1.452       .  S
C1643      C1644   1.423       .  A
C1643      C1649   1.450       .  S
C1644      C1645   1.420       .  A
C1645      C1646   1.410       .  A
C1645      C1648   1.451       .  S
C1646      C1650   1.451       .  S
C1647      N1654   1.157       .  T
C1648      N1655   1.157       .  T
C1649      N1653   1.158       .  T
C1650      N1656   1.157       .  T
C1651      N1660   1.157       .  T
C1652      N1658   1.157       .  T
C1661      C1662   1.406       .  A
C1661      C1666   1.415       .  A
C1661      C1679   1.452       .  S
C1662      C1663   1.407       .  A
C1662      C1667   1.502       .  S
C1663      C1664   1.412       .  A
C1663      C1668   1.451       .  S
C1664      C1665   1.427       .  A
C1664      C1680   1.452       .  S
C1665      C1666   1.419       .  A
C1666      C1669   1.439       .  S
C1667      C1670   1.410       .  A
C1667      C1674   1.407       .  A
C1668      N1685   1.157       .  T
C1670      C1671   1.413       .  A
C1670      C1675   1.452       .  S
C1671      C1672   1.420       .  A
C1671      C1677   1.448       .  S
C1672      C1673   1.422       .  A
C1673      C1674   1.414       .  A
C1673      C1676   1.450       .  S
C1674      C1678   1.450       .  S
C1675      N1682   1.157       .  T
C1676      N1683   1.157       .  T
C1677      N1681   1.156       .  T
C1678      N1684   1.157       .  T
C1679      N1688   1.157       .  T
C1680      N1686   1.158       .  T
C1689      C1690   1.411       .  A
C1689      C1694   1.410       .  A
C1689      C1707   1.454       .  S
C1690      C1691   1.406       .  A
C1690      C1695   1.500       .  S
C1691      C1692   1.415       .  A
C1691      C1696   1.450       .  S
C1692      C1693   1.424       .  A
C1692      C1708   1.449       .  S
C1693      C1694   1.421       .  A
C1694      C1697   1.450       .  S
C1695      C1698   1.406       .  A
C1695      C1702   1.406       .  A
C1696      N1713   1.157       .  T
C1697      N1715   1.157       .  T
C1698      C1699   1.411       .  A
C1698      C1703   1.451       .  S
C1699      C1700   1.421       .  A
C1699      C1705   1.450       .  S
C1700      C1701   1.422       .  A
C1701      C1702   1.413       .  A
C1701      C1704   1.448       .  S
C1702      C1706   1.452       .  S
C1703      N1710   1.157       .  T
C1704      N1711   1.157       .  T
C1705      N1709   1.157       .  T
C1706      N1712   1.157       .  T
C1707      N1716   1.157       .  T
C1708      N1714   1.157       .  T
C1717      C1718   1.409       .  A
C1717      C1722   1.411       .  A
C1717      C1735   1.453       .  S
C1718      C1719   1.407       .  A
C1718      C1723   1.498       .  S
C1719      C1720   1.415       .  A
C1719      C1724   1.451       .  S
C1720      C1721   1.422       .  A
C1720      C1736   1.449       .  S
C1721      C1722   1.422       .  A
C1722      C1725   1.450       .  S
C1723      C1726   1.408       .  A
C1723      C1730   1.408       .  A
C1724      N1741   1.157       .  T
C1725      N1743   1.157       .  T
C1726      C1727   1.412       .  A
C1726      C1731   1.451       .  S
C1727      C1728   1.419       .  A
C1727      C1733   1.448       .  S
C1728      C1729   1.416       .  A
C1729      C1730   1.410       .  A
C1729      C1732   1.450       .  S
C1730      C1734   1.450       .  S
C1731      N1738   1.157       .  T
C1732      N1739   1.157       .  T
C1734      N1740   1.157       .  T
C1735      N1744   1.157       .  T
C1736      N1742   1.157       .  T
C1745      C1746   1.407       .  A
C1745      C1750   1.418       .  A
C1745      C1763   1.451       .  S
C1746      C1747   1.410       .  A
C1746      C1751   1.505       .  S
C1747      C1748   1.412       .  A
C1747      C1752   1.453       .  S
C1748      C1749   1.422       .  A
C1748      C1764   1.449       .  S
C1749      C1750   1.427       .  A
C1750      C1753   1.450       .  S
C1751      C1754   1.407       .  A
C1751      C1758   1.408       .  A
C1752      N1769   1.157       .  T
C1753      N1771   1.157       .  T
C1754      C1755   1.413       .  A
C1754      C1759   1.453       .  S
C1755      C1756   1.419       .  A
C1755      C1761   1.445       .  S
C1756      C1757   1.425       .  A
C1757      C1758   1.417       .  A
C1757      C1760   1.450       .  S
C1758      C1762   1.451       .  S
C1759      N1766   1.157       .  T
C1760      N1767   1.157       .  T
C1761      N1765   1.156       .  T
C1762      N1768   1.157       .  T
C1763      N1772   1.157       .  T
C1764      N1770   1.156       .  T
C1773      C1774   1.409       .  A
C1773      C1778   1.411       .  A
C1773      C1791   1.453       .  S
C1774      C1775   1.412       .  A
C1774      C1779   1.501       .  S
C1775      C1776   1.415       .  A
C1775      C1780   1.448       .  S
C1776      C1777   1.412       .  A
C1776      C1792   1.447       .  S
C1777      C1778   1.420       .  A
C1778      C1781   1.450       .  S
C1779      C1782   1.415       .  A
C1779      C1786   1.412       .  A
C1780      N1797   1.157       .  T
C1782      C1783   1.412       .  A
C1782      C1787   1.451       .  S
C1783      C1784   1.409       .  A
C1783      C1789   1.451   1_565  S
C1784      C1785   1.412       .  A
C1785      C1786   1.411       .  A
C1785      C1788   1.452       .  S
C1786      C1790   1.447       .  S
C1787      N1794   1.157       .  T
C1788      N1795   1.157       .  T
C1789      N1793   1.157       .  T
C1790      N1796   1.157       .  T
C1791      N1800   1.157       .  T
C1792      N1798   1.156       .  T
C1801      C1802   1.408       .  A
C1801      C1806   1.412       .  A
C1801      C1819   1.450       .  S
C1802      C1803   1.410       .  A
C1802      C1807   1.504       .  S
C1803      C1804   1.416       .  A
C1803      C1808   1.450       .  S
C1804      C1805   1.421       .  A
C1804      C1820   1.449       .  S
C1805      C1806   1.420       .  A
C1806      C1809   1.451       .  S
C1807      C1810   1.412       .  A
C1807      C1814   1.408       .  A
C1808      N1825   1.157       .  T
C1809      N1827   1.157       .  T
C1810      C1811   1.416       .  A
C1810      C1815   1.451       .  S
C1811      C1812   1.418       .  A
C1811      C1817   1.451   1_565  S
C1812      C1813   1.421       .  A
C1813      C1814   1.415       .  A
C1813      C1816   1.449       .  S
C1814      C1818   1.451       .  S
C1815      N1822   1.157       .  T
C1816      N1823   1.157       .  T
C1817      N1821   1.158       .  T
C1818      N1824   1.157       .  T
C1819      N1828   1.157       .  T
C1820      N1826   1.158       .  T
C1829      C1830   1.408       .  A
C1829      C1834   1.414       .  A
C1829      C1847   1.451       .  S
C1830      C1831   1.409       .  A
C1830      C1835   1.498       .  S
C1831      C1832   1.410       .  A
C1831      C1836   1.450       .  S
C1832      C1833   1.416       .  A
C1832      C1848   1.450       .  S
C1833      C1834   1.421       .  A
C1834      C1837   1.448       .  S
C1835      C1838   1.409       .  A
C1835      C1842   1.407       .  A
C1836      N1853   1.157       .  T
C1838      C1839   1.412       .  A
C1838      C1843   1.453       .  S
C1839      C1840   1.424       .  A
C1839      C1845   1.451       .  S
C1840      C1841   1.421       .  A
C1841      C1842   1.413       .  A
C1841      C1844   1.450       .  S
C1842      C1846   1.450       .  S
C1843      N1850   1.157       .  T
C1844      N1851   1.157       .  T
C1845      N1849   1.157       .  T
C1846      N1852   1.157       .  T
C1847      N1856   1.157       .  T
C1848      N1854   1.157       .  T
C1857      C1858   1.415       .  A
C1857      C1862   1.412   1_565  A
C1857      C1875   1.450   1_565  S
C1858      C1859   1.415       .  A
C1858      C1863   1.502       .  S
C1859      C1860   1.410       .  A
C1859      C1864   1.452       .  S
C1860      C1861   1.409       .  A
C1860      C1876   1.448       .  S
C1861      C1862   1.410   1_565  A
C1862      C1865   1.450       .  S
C1863      C1866   1.411       .  A
C1863      C1870   1.413       .  A
C1864      N1881   1.157       .  T
C1865      N1883   1.157       .  T
C1866      C1867   1.411       .  A
C1866      C1871   1.451       .  S
C1867      C1868   1.424       .  A
C1867      C1873   1.452       .  S
C1868      C1869   1.406       .  A
C1869      C1870   1.410       .  A
C1869      C1872   1.441       .  S
C1870      C1874   1.448       .  S
C1871      N1878   1.157       .  T
C1872      N1879   1.158       .  T
C1874      N1880   1.157       .  T
C1875      N1884   1.157       .  T
C1876      N1882   1.156       .  T
