geometry optimzed in LAMMPS
_audit_creation_date              2020-12-01 
_audit_creation_method            'lammps2cif' 
_symmetry_space_group_name_H-M    'P1' 
_symmetry_Int_Tables_number       1 
_symmetry_cell_setting            triclinic 
loop_ 
_symmetry_equiv_pos_as_xyz 
  x,y,z 
_cell_length_a                    45.71714852 
_cell_length_b                    45.67531180417236 
_cell_length_c                    33.311348454029776 
_cell_angle_alpha                 89.96761782173417 
_cell_angle_beta                  90.03585394354774 
_cell_angle_gamma                 126.9473811478372 
loop_ 
_atom_site_label 
_atom_site_type_symbol 
_atom_site_fract_x 
_atom_site_fract_y 
_atom_site_fract_z 
_atom_site_charge 
C1          C  0.60436807  0.89014569  0.99618132     0.79900
N2          N  0.60447347  0.90502552  0.29412651    -0.78400
C3          C  0.60540894  0.93529686  0.29377155     0.82300
N4          N  0.60582586  0.95058740  0.32886853    -0.78400
C5          C  0.60531015  0.93561241  0.03093515     0.82400
N6          N  0.60430514  0.90532952  0.03117868    -0.80100
C7          C  0.38335885  0.87378154  0.99543199     0.79900
N8          N  0.40140921  0.88108000  0.03064314    -0.78400
C9          C  0.43738326  0.89540079  0.03100313     0.82300
N10         N  0.45574427  0.90316071  0.32922816    -0.78400
C11         C  0.43785896  0.89620453  0.29390391     0.82400
N12         N  0.40190163  0.88187789  0.29379853    -0.80100
C13         C  0.60053972  0.94808783  0.25604503     0.42100
N14         N  0.57334393  0.95122287  0.20595974     0.01000
C15         C  0.63252607  0.10120380  0.08689822    -0.06900
H16         H  0.62333378  0.11772920  0.24717183     0.06500
C17         C  0.49069726  0.02301370  0.23664061    -0.07200
Co18       Co  0.62085346  0.02263267  0.16261443     0.74200
N19         N  0.61831686  0.07792604  0.20656678    -0.26400
Co20       Co  0.58106768  0.06781064  0.16208885     0.74100
C21         C  0.51504359  0.05904704  0.25505514     0.42200
N22         N  0.48196052  0.94590852  0.20546351     0.00600
N23         N  0.54249890  0.05585301  0.20529708     0.00700
N24         N  0.65886750  0.07225153  0.09054813    -0.47200
H25         H  0.65264055  0.00670614  0.24585002     0.06500
N26         N  0.63379124  0.06110238  0.20599999     0.01000
N27         N  0.54291736  0.05557218  0.11812914     0.00800
C28         C  0.51595746  0.05827333  0.06751191     0.42400
N29         N  0.49740869  0.92906925  0.20654163    -0.25800
C30         C  0.62492928  0.98449098  0.08702370    -0.06800
N31         N  0.56897854  0.92925274  0.23515012    -0.47000
N32         N  0.54744324  0.07730511  0.08854468    -0.47200
C33         C  0.60031499  0.94861886  0.06836460     0.42100
N34         N  0.63464940  0.06156691  0.11947930     0.01000
N35         N  0.49723717  0.92868757  0.11825798    -0.25900
N36         N  0.60589699  0.98330833  0.20648591    -0.26400
N37         N  0.48180128  0.94552736  0.11909420     0.00600
H38         H  0.49131810  0.88831795  0.07779314     0.06500
H39         H  0.46369375  0.99984634  0.07813589     0.06600
N40         N  0.61911502  0.07830596  0.11846498    -0.26400
N41         N  0.50994438  0.02377491  0.20569471    -0.26000
N42         N  0.57341074  0.95137272  0.11893538     0.01000
C43         C  0.65680006  0.09579698  0.25726537     0.42400
C44         C  0.48452384  0.90678877  0.23867889    -0.07300
N45         N  0.51031127  0.02350188  0.11774242    -0.26000
H46         H  0.46301247  0.00040780  0.24469319     0.06600
N47         N  0.65719023  0.07120396  0.23569004    -0.47200
H48         H  0.49201910  0.88936173  0.24771090     0.06500
C49         C  0.45751227  0.91003341  0.06848881     0.42200
C50         C  0.62498312  0.98411531  0.23767861    -0.06800
Co51       Co  0.53499102  0.93916450  0.16242062     0.73800
N52         N  0.45826404  0.93582883  0.23477287    -0.47000
C53         C  0.65916419  0.09734779  0.06909753     0.42500
N54         N  0.56889408  0.92960306  0.08945652    -0.47000
Co55       Co  0.49528173  0.98441335  0.16200401     0.73900
C56         C  0.49133877  0.02247090  0.08629238    -0.07300
C57         C  0.63089885  0.10027102  0.23858488    -0.06800
N58         N  0.60599269  0.98347337  0.11849534    -0.26400
N59         N  0.54674982  0.07781433  0.23443345    -0.47100
H60         H  0.62512630  0.11876005  0.07812123     0.06500
C61         C  0.48396997  0.90593088  0.08651389    -0.07300
Cl62       Cl  0.55805506  0.00349805  0.16225632    -0.50300
C63         C  0.45836042  0.91122955  0.25673430     0.42300
H64         H  0.65251375  0.00715330  0.07875882     0.06500
N65         N  0.45777115  0.93501947  0.09002959    -0.47000
C66         C  0.50661426  0.11375864  0.32911022     0.79900
N67         N  0.50823629  0.10008183  0.29359863    -0.78400
C68         C  0.51004169  0.07147455  0.29301236     0.82300
N69         N  0.51106709  0.05692460  0.32799064    -0.78400
C70         C  0.51055141  0.07110564  0.03015491     0.82400
N71         N  0.50876195  0.09970151  0.03065184    -0.80100
C72         C  0.73318159  0.13821381  0.99479902     0.79900
N73         N  0.71404185  0.12897885  0.29343935    -0.78400
C74         C  0.67743374  0.11159375  0.29419439     0.82300
N75         N  0.65965476  0.10297867  0.32980142    -0.78400
C76         C  0.67867290  0.11190982  0.03127512     0.82400
N77         N  0.71529125  0.12910707  0.03038704    -0.80100
C78         C  0.07585285  0.60263063  0.26713830     0.42100
N79         N  0.08610398  0.58132964  0.21644498     0.01000
C80         C  0.96125315  0.43268511  0.09759869    -0.06900
H81         H  0.95476546  0.40645483  0.25899227     0.06500
C82         C  0.07954733  0.44105609  0.24940257    -0.07200
Co83       Co  0.01744155  0.52273928  0.17369453     0.74200
N84         N  0.98305693  0.45257107  0.21798752    -0.26400
Co85       Co  0.00763700  0.44152544  0.17338683     0.74100
C86         C  0.04480474  0.41219043  0.26781321     0.42200
N87         N  0.13361795  0.53024487  0.21640955     0.00600
N88         N  0.03403682  0.43249228  0.21666997     0.00700
N89         N  0.96706187  0.48538180  0.10207369    -0.47200
H90         H  0.01346924  0.56283861  0.25798894     0.06500
N91         N  0.98659409  0.48344866  0.21710520     0.01000
N92         N  0.03392782  0.43244359  0.12989133     0.00800
C93         C  0.04487396  0.41177008  0.07924744     0.42400
N94         N  0.13701290  0.56104428  0.21724700    -0.25800
C95         C  0.03950343  0.57191500  0.09752914    -0.06800
N96         N  0.10253542  0.60590376  0.24548954    -0.47000
N97         N  0.01786904  0.40821760  0.10052832    -0.47200
C98         C  0.07408042  0.60044104  0.07862385     0.42100
N99         N  0.98563713  0.48309377  0.13065959     0.01000
N100        N  0.13669283  0.56057463  0.12861637    -0.25900
N101        N  0.05012052  0.56218389  0.21751731    -0.26400
N102        N  0.13345257  0.52986914  0.12991629     0.00600
H103        H  0.16518634  0.60662148  0.08758910     0.06500
H104        H  0.10709852  0.45115790  0.08942161     0.06600
N105        N  0.98242002  0.45239434  0.12931158    -0.26400
N106        N  0.07002431  0.45166029  0.21748113    -0.26000
N107        N  0.08528350  0.58041696  0.12964229     0.01000
C108        C  0.95299750  0.45538612  0.26833094     0.42400
C109        C  0.15789231  0.58087071  0.24904306    -0.07300
N110        N  0.06991923  0.45145745  0.12936000    -0.26000
H111        H  0.10708443  0.45168770  0.25802983     0.06600
N112        N  0.96884079  0.48605765  0.24635933    -0.47200
H113        H  0.16561204  0.60744443  0.25779133     0.06500
C114        C  0.16767639  0.55806984  0.07903352     0.42200
C115        C  0.04093742  0.57332711  0.24922180    -0.06800
Co116      Co  0.11197110  0.57175739  0.17294291     0.73800
N117        N  0.15181708  0.52796939  0.24545499    -0.47000
C118        C  0.95071499  0.45456245  0.08021667     0.42500
N119        N  0.10118478  0.60427638  0.09996874    -0.47000
Co120      Co  0.10222459  0.49060093  0.17332681     0.73900
C121        C  0.07952861  0.44065143  0.09776323    -0.07300
C122        C  0.96252678  0.43302584  0.25010252    -0.06800
N123        N  0.04930275  0.56144800  0.12931584    -0.26400
N124        N  0.01788554  0.40839947  0.24613147    -0.47100
H125        H  0.95352176  0.40615349  0.08853655     0.06500
C126        C  0.15749540  0.58012371  0.09665602    -0.07300
Cl127      Cl  0.05980582  0.50664197  0.17330302    -0.50300
C128        C  0.16791526  0.55886054  0.26711313     0.42300
H129        H  0.01189765  0.56137472  0.08928307     0.06500
N130        N  0.15165975  0.52738946  0.10106296    -0.47000
C131        C  0.22600400  0.55491879  0.00594200     0.79900
N132        N  0.21268588  0.55779548  0.30433562    -0.78400
C133        C  0.18741490  0.56436569  0.30437953     0.82300
N134        N  0.17447163  0.56706968  0.33977845    -0.78400
C135        C  0.18696803  0.56330624  0.04162321     0.82400
N136        N  0.21208103  0.55644217  0.04120424    -0.80100
C137        C  0.99693879  0.33688321  0.00664378     0.79900
N138        N  0.00998340  0.35574549  0.30508111    -0.78400
C139        C  0.03775689  0.39209436  0.30489324     0.82300
N140        N  0.05165351  0.41039120  0.34017690    -0.78400
C141        C  0.03808696  0.39186728  0.04205840     0.82400
N142        N  0.01057387  0.35544770  0.04171214    -0.80100
C143        C  0.89448001  0.45987201  0.00579254     0.79900
N144        N  0.90854963  0.45738205  0.30463867    -0.78400
C145        C  0.93311719  0.44990684  0.30521955     0.82300
N146        N  0.94501073  0.44623032  0.34087540    -0.78400
C147        C  0.93199301  0.44976376  0.04241820     0.82400
N148        N  0.90727392  0.45717612  0.04138720    -0.80100
C149        C  0.12245807  0.67675054  0.00828108     0.79900
N150        N  0.11047414  0.65877178  0.30600356    -0.78400
C151        C  0.08292457  0.62225038  0.30477856     0.82300
N152        N  0.06835532  0.60319260  0.00623545    -0.78400
C153        C  0.08099335  0.62093861  0.04196607     0.82400
N154        N  0.10823435  0.65736989  0.04271969    -0.80100
C155        C  0.65261891  0.52019309  0.06878912     0.42100
N156        N  0.63180560  0.53104483  0.11940776     0.01000
C157        C  0.48469392  0.40456176  0.23905780    -0.06900
H158        H  0.45804759  0.39596296  0.07939222     0.06500
C159        C  0.48901715  0.52046029  0.08841470    -0.07200
Co160      Co  0.57533095  0.46216700  0.16356329     0.74200
N161        N  0.50465929  0.42571949  0.11946289    -0.26400
Co162      Co  0.49247831  0.44965686  0.16340041     0.74100
C163        C  0.46252701  0.48620561  0.06782616     0.42200
N164        N  0.57837379  0.57604009  0.12039420     0.00600
N165        N  0.48264895  0.47507994  0.11889431     0.00700
N166        N  0.53840184  0.41219140  0.23626674    -0.47200
H167        H  0.61642277  0.45837270  0.08163481     0.06500
N168        N  0.53595777  0.43011037  0.12014748     0.01000
N169        N  0.48179456  0.47505169  0.20730085     0.00800
C170        C  0.45888133  0.48605766  0.25576964     0.42400
N171        N  0.60966281  0.58043815  0.11976003    -0.25800
C172        C  0.62727860  0.48567175  0.23677674    -0.06800
N173        N  0.65501950  0.54719462  0.08891172    -0.47000
N174        N  0.45769389  0.45908915  0.23708222    -0.47200
C175        C  0.65504382  0.52009054  0.25649759     0.42100
N176        N  0.53583959  0.43015682  0.20705832     0.01000
N177        N  0.60919461  0.57977355  0.20803157    -0.25900
N178        N  0.61420632  0.49518635  0.11985831    -0.26400
N179        N  0.57789899  0.57543145  0.20713493     0.00600
H180        H  0.65545681  0.60908399  0.24859833     0.06500
H181        H  0.49572903  0.54781450  0.24258667     0.06600
N182        N  0.50456611  0.42586964  0.20763181    -0.26400
N183        N  0.50027978  0.51093860  0.11941724    -0.26000
N184        N  0.63216285  0.53083583  0.20771042     0.01000
C185        C  0.50753999  0.39538631  0.06959743     0.42400
C186        C  0.62946568  0.60194015  0.08835965    -0.07300
N187        N  0.49931432  0.51086194  0.20643368    -0.26000
H188        H  0.49852193  0.54796420  0.08100523     0.06600
N189        N  0.53873122  0.41231754  0.09092650    -0.47200
H190        H  0.65638764  0.61053555  0.07991047     0.06500
C191        C  0.60583939  0.60952588  0.25812780     0.42200
C192        C  0.62582154  0.48582354  0.08905994    -0.06800
Co193      Co  0.62164418  0.55629739  0.16377048     0.73800
N194        N  0.57570400  0.59409016  0.09140273    -0.47000
C195        C  0.50709072  0.39523808  0.25738135     0.42500
N196        N  0.65627213  0.54693653  0.23746484    -0.47000
Co197      Co  0.53880070  0.54373608  0.16336890     0.73900
C198        C  0.48660186  0.52033086  0.23590385    -0.07300
C199        C  0.48495182  0.40447836  0.08790293    -0.06800
N200        N  0.61462003  0.49500740  0.20701876    -0.26400
N201        N  0.45976069  0.45906532  0.08810111    -0.47100
H202        H  0.45776402  0.39605822  0.24735961     0.06500
C203        C  0.62862442  0.60064857  0.23989961    -0.07300
Cl204      Cl  0.55707147  0.50295231  0.16365802    -0.50300
C205        C  0.60696607  0.61127974  0.07023889     0.42300
H206        H  0.61819433  0.45822267  0.24364350     0.06500
N207        N  0.57489075  0.59294627  0.23645046    -0.47000
C208        C  0.50216992  0.33173110  0.99668584     0.79900
N209        N  0.50281847  0.34706820  0.03190689    -0.78400
C210        C  0.50161827  0.37605059  0.03205814     0.82300
N211        N  0.50082115  0.39046129  0.99680766    -0.78400
C212        C  0.50094494  0.37572584  0.29483174     0.82400
N213        N  0.50180941  0.34652584  0.29483291    -0.80100
C214        C  0.40383133  0.49217815  0.99844487     0.79900
N215        N  0.41767339  0.48866127  0.03256667    -0.78400
C216        C  0.44294154  0.48219523  0.03117709     0.82300
N217        N  0.45504220  0.47958521  0.99517531    -0.78400
C218        C  0.44133829  0.48276155  0.29400538     0.82400
N219        N  0.41621057  0.48962899  0.29570414    -0.80100
C220        C  0.71291353  0.51745147  0.99837986     0.79900
N221        N  0.69855106  0.51967245  0.03288867    -0.78400
C222        C  0.67198371  0.52438684  0.03184232     0.82300
N223        N  0.65898738  0.52609132  0.99598487    -0.78400
C224        C  0.67312129  0.52395547  0.29456828     0.82400
N225        N  0.69983414  0.51925877  0.29579721    -0.80100
C226        C  0.60846725  0.67217434  0.99648158     0.79900
N227        N  0.60881389  0.65706782  0.29493992    -0.78400
C228        C  0.61163435  0.62915429  0.29530557     0.82300
N229        N  0.61332102  0.61562523  0.99745305    -0.78400
C230        C  0.61240767  0.63019997  0.03249562     0.82400
N231        N  0.60970558  0.65823398  0.03193173    -0.80100
C232        C  0.86841780  0.46927310  0.00462281    -0.12300
C233        C  0.84406903  0.45930425  0.30541179     0.03200
C234        C  0.82083126  0.46969382  0.30534697    -0.12800
C235        C  0.82106362  0.48992737  0.00373429     0.18000
C236        C  0.84506238  0.49985363  0.03618836    -0.09900
C237        C  0.86836018  0.48949510  0.03648765    -0.02800
H238        H  0.80196663  0.46144169  0.28058300     0.04600
C239        C  0.79460481  0.49859061  0.00317872     0.20000
H240        H  0.88693380  0.49784627  0.06155925     0.09700
C241        C  0.76369367  0.47856780  0.02795779    -0.16200
C242        C  0.73681220  0.48418855  0.02660850     0.02700
C243        C  0.74068196  0.51052368  0.00013064    -0.11500
C244        C  0.77162868  0.53045606  0.30845855    -0.01600
C245        C  0.79853730  0.52474534  0.30993161    -0.06700
H246        H  0.76007551  0.45783215  0.04784622     0.05700
H247        H  0.77510784  0.55083689  0.28806206     0.09100
Br248      Br  0.84764361  0.52844985  0.08012697    -0.06400
Br249      Br  0.83910399  0.42974279  0.26103995    -0.03400
Br250      Br  0.69405788  0.45280708  0.05927270    -0.00500
Br251      Br  0.84061866  0.55366906  0.27585654    -0.04900
C252        C  0.25215077  0.54586900  0.00535967    -0.12300
C253        C  0.28191643  0.56287681  0.31168760     0.03200
C254        C  0.30487360  0.55216613  0.31070257    -0.12800
C255        C  0.29875297  0.52449152  0.00278848     0.18000
C256        C  0.26939001  0.50785818  0.03020054    -0.09900
C257        C  0.24651065  0.51868561  0.03139372    -0.02800
H258        H  0.32794823  0.56581676  0.29027592     0.04600
C259        C  0.32453577  0.51491983  0.00168683     0.20000
H260        H  0.22367169  0.50516731  0.05215057     0.09700
C261        C  0.34718093  0.52344936  0.03484808    -0.16200
C262        C  0.37313982  0.51654806  0.03467680     0.02700
C263        C  0.37676473  0.50034590  0.00048957    -0.11500
C264        C  0.35396422  0.49199982  0.30051077    -0.01600
C265        C  0.32818543  0.49921973  0.30084488    -0.06700
H266        H  0.34509892  0.53630959  0.06090319     0.05700
H267        H  0.35596977  0.47955669  0.27400607     0.09100
Br268      Br  0.25857010  0.46929518  0.06552321    -0.06400
Br269      Br  0.29406909  0.60246447  0.27725399    -0.03400
Br270      Br  0.40376055  0.53257743  0.08154936    -0.00500
Br271      Br  0.29805135  0.48648650  0.25422366    -0.04900
C272        C  0.96251319  0.29912727  0.00676515    -0.12300
C273        C  0.95037624  0.27565186  0.30640398     0.03200
C274        C  0.91411565  0.24413309  0.30469307    -0.12800
C275        C  0.88957192  0.23582830  0.00242051     0.18000
C276        C  0.90238145  0.25743246  0.03734975    -0.09900
C277        C  0.93865275  0.28842933  0.03949081    -0.02800
H278        H  0.90443876  0.22714492  0.27803447     0.04600
C279        C  0.85007033  0.20773505  0.32946510     0.20000
H280        H  0.94718345  0.30574946  0.06575586     0.09700
C281        C  0.83086518  0.17637738  0.02041783    -0.16200
C282        C  0.79263567  0.15238995  0.01947687     0.02700
C283        C  0.77326956  0.15967553  0.99361970    -0.11500
C284        C  0.79270547  0.18970471  0.30076952    -0.01600
C285        C  0.83080019  0.21387810  0.30206881    -0.06700
H286        H  0.84563768  0.17129939  0.04114738     0.05700
H287        H  0.77813329  0.19553085  0.28067232     0.09100
Br288      Br  0.87054434  0.24866197  0.08095265    -0.06400
Br289      Br  0.98113468  0.28525961  0.26125922    -0.03400
Br290      Br  0.76847369  0.10993443  0.05341914    -0.00500
Br291      Br  0.85486232  0.25661055  0.26844198    -0.04900
C292        C  0.50472293  0.14509364  0.99616116    -0.12300
C293        C  0.48602786  0.14964794  0.02645178     0.03200
C294        C  0.48574046  0.18012617  0.02559790    -0.12800
C295        C  0.50347011  0.20618873  0.32823396     0.18000
C296        C  0.52171662  0.20161799  0.29784416    -0.09900
C297        C  0.52214923  0.17126268  0.29857348    -0.02800
H298        H  0.47129497  0.18337250  0.04882132     0.04600
C299        C  0.50278736  0.23809466  0.99519812     0.20000
H300        H  0.53667827  0.16843524  0.27509244     0.09700
C301        C  0.52896368  0.26904012  0.35113622    -0.16200
C302        C  0.52921240  0.29982318  0.35201401     0.02700
C303        C  0.50297135  0.29990850  0.99648633    -0.11500
C304        C  0.47693998  0.26894973  0.97362788    -0.01600
C305        C  0.47644761  0.23800668  0.97323303    -0.06700
H306        H  0.54942368  0.26931130  0.36790429     0.05700
H307        H  0.45651271  0.26859060  0.95661950     0.09100
Br308      Br  0.54673114  0.23643914  0.25508474    -0.06400
Br309      Br  0.45834639  0.11445686  0.06837650    -0.03400
Br310      Br  0.56730822  0.34171543  0.38200476    -0.00500
Br311      Br  0.43898134  0.19590588  0.94309351    -0.04900
C312        C  0.34355403  0.85533647  0.99490231    -0.12300
C313        C  0.32567601  0.86126292  0.02475033     0.03200
C314        C  0.28739810  0.83853416  0.02640636    -0.12800
C315        C  0.26664465  0.80982334  0.99884689     0.18000
C316        C  0.28444591  0.80598999  0.30044680    -0.09900
C317        C  0.32254574  0.82882047  0.29856632    -0.02800
H318        H  0.27381038  0.84200376  0.05050949     0.04600
C319        C  0.22757660  0.78064013  0.00677612     0.20000
H320        H  0.33577267  0.82413565  0.27519392     0.09700
C321        C  0.20096776  0.77387855  0.31246622    -0.16200
C322        C  0.16543437  0.74105496  0.31383114     0.02700
C323        C  0.15626856  0.71471465  0.01009904    -0.11500
C324        C  0.18195007  0.72339361  0.04008678    -0.01600
C325        C  0.21738822  0.75585919  0.03851735    -0.06700
H326        H  0.20847166  0.79318599  0.28840406     0.05700
H327        H  0.17540911  0.70366837  0.06329962     0.09100
Br328      Br  0.25834642  0.76743222  0.26140542    -0.06400
Br329      Br  0.35178279  0.89975111  0.06384494    -0.03400
Br330      Br  0.13079042  0.73344802  0.27451103    -0.00500
Br331      Br  0.25181703  0.76267057  0.07777654    -0.04900
C332        C  0.60679152  0.70351195  0.99602102    -0.12300
C333        C  0.58407230  0.70542636  0.30240914     0.03200
C334        C  0.58430030  0.73620597  0.30253888    -0.12800
C335        C  0.60688168  0.76528978  0.99571408     0.18000
C336        C  0.62937177  0.76342154  0.02265971    -0.07500
C337        C  0.62901871  0.73259974  0.02285855    -0.02800
H338        H  0.56660359  0.73739632  0.28205247     0.04600
C339        C  0.60618060  0.79713965  0.99538128     0.20000
H340        H  0.64677333  0.73170510  0.04353322     0.09700
C341        C  0.58459256  0.79893346  0.02356235    -0.16200
C342        C  0.58342012  0.82883149  0.02435615     0.02700
C343        C  0.60418026  0.85764489  0.99637330    -0.11500
C344        C  0.62548531  0.85545833  0.30122173    -0.01600
C345        C  0.62675518  0.82561898  0.30072903    -0.06700
H346        H  0.56844708  0.77683572  0.04493591     0.05700
H347        H  0.64176148  0.87738011  0.27969424     0.09100
Br348      Br  0.66166523  0.80287615  0.05881582    -0.06400
Br349      Br  0.55052319  0.66618409  0.26652252    -0.03400
Br350      Br  0.55124746  0.82735699  0.06278786    -0.00500
Br351      Br  0.65763098  0.82518224  0.26215426    -0.04900
C352        C  0.60436827  0.89014537  0.32951432     0.79900
N353        N  0.60447347  0.90502493  0.62746136    -0.78400
C354        C  0.60540917  0.93529651  0.62710415     0.82300
N355        N  0.60582563  0.95058706  0.66220288    -0.78400
C356        C  0.60531048  0.93561190  0.36426839     0.82400
N357        N  0.60430534  0.90532911  0.36451084    -0.80100
C358        C  0.38335882  0.87378189  0.32876567     0.79900
N359        N  0.40140977  0.88108008  0.36397719    -0.78400
C360        C  0.43738321  0.89540039  0.36433614     0.82300
N361        N  0.45574433  0.90316055  0.66256099    -0.78400
C362        C  0.43785906  0.89620403  0.62723776     0.82400
N363        N  0.40190170  0.88187749  0.62713120    -0.80100
C364        C  0.60054079  0.94808788  0.58937912     0.42100
N365        N  0.57334513  0.95122287  0.53929347     0.01000
C366        C  0.63252650  0.10120316  0.42023231    -0.06900
H367        H  0.62333470  0.11772500  0.58050273     0.06500
C368        C  0.49069705  0.02301321  0.56997494    -0.07200
Co369      Co  0.62085464  0.02263235  0.49594770     0.74200
N370        N  0.61831700  0.07792448  0.53989922    -0.26400
Co371      Co  0.58106824  0.06780988  0.49542251     0.74100
C372        C  0.51504361  0.05904624  0.58838888     0.42200
N373        N  0.48196128  0.94590826  0.53879652     0.00600
N374        N  0.54249812  0.05585142  0.53863070     0.00700
N375        N  0.65886795  0.07225091  0.42388200    -0.47200
H376        H  0.65264238  0.00670664  0.57918478     0.06500
N377        N  0.63379279  0.06110177  0.53933403     0.01000
N378        N  0.54291739  0.05557146  0.45146225     0.00800
C379        C  0.51595872  0.05827329  0.40084524     0.42400
N380        N  0.49740936  0.92906923  0.53987436    -0.25800
C381        C  0.62493175  0.98449214  0.42035639    -0.06800
N382        N  0.56897910  0.92925274  0.56848339    -0.47000
N383        N  0.54744410  0.07730490  0.42187819    -0.47200
C384        C  0.60031740  0.94861985  0.40169650     0.42100
N385        N  0.63465070  0.06156597  0.45281268     0.01000
N386        N  0.49723774  0.92868692  0.45159059    -0.25900
N387        N  0.60589834  0.98330827  0.53981934    -0.26400
N388        N  0.48180278  0.94552671  0.45242742     0.00600
H389        H  0.49131765  0.88831635  0.41112440     0.06500
H390        H  0.46369777  0.99984857  0.41147042     0.06600
N391        N  0.61911531  0.07830577  0.45179831    -0.26400
N392        N  0.50994474  0.02377458  0.53902836    -0.26000
N393        N  0.57341107  0.95137162  0.45226803     0.01000
C394        C  0.65680082  0.09579595  0.59059844     0.42400
C395        C  0.48452465  0.90678858  0.57201164    -0.07300
N396        N  0.51031299  0.02350218  0.45107632    -0.26000
H397        H  0.46301189  0.00040736  0.57802856     0.06600
N398        N  0.65719062  0.07120306  0.56902275    -0.47200
H399        H  0.49202061  0.88936188  0.58104314     0.06500
C400        C  0.45751274  0.91003281  0.40182196     0.42200
C401        C  0.62498428  0.98411529  0.57101249    -0.06800
Co402      Co  0.53499222  0.93916442  0.49575354     0.73800
N403        N  0.45826454  0.93582846  0.56810617    -0.47000
C404        C  0.65916476  0.09734746  0.40243097     0.42500
N405        N  0.56889508  0.92960364  0.42279028    -0.47000
Co406      Co  0.49528220  0.98441282  0.49533722     0.73900
C407        C  0.49133986  0.02247088  0.41962537    -0.07300
C408        C  0.63089971  0.10026974  0.57191785    -0.06800
N409        N  0.60599665  0.98347522  0.45182716    -0.26400
N410        N  0.54675027  0.07781386  0.56776717    -0.47100
H411        H  0.62512633  0.11876092  0.41145469     0.06500
C412        C  0.48397007  0.90592971  0.41984631    -0.07300
Cl413      Cl  0.55805590  0.00349768  0.49558958    -0.50300
C414        C  0.45836093  0.91122913  0.59006711     0.42300
H415        H  0.65252450  0.00716057  0.41208719     0.06500
N416        N  0.45777173  0.93501898  0.42336254    -0.47000
C417        C  0.50661277  0.11375813  0.66244299     0.79900
N418        N  0.50823595  0.10008097  0.62693090    -0.78400
C419        C  0.51004192  0.07147493  0.62634555     0.82300
N420        N  0.51106703  0.05692434  0.66132399    -0.78400
C421        C  0.51055249  0.07110473  0.36348837     0.82400
N422        N  0.50876401  0.09970234  0.36398600    -0.80100
C423        C  0.73318203  0.13821372  0.32813247     0.79900
N424        N  0.71404217  0.12897850  0.62677299    -0.78400
C425        C  0.67743407  0.11159325  0.62752737     0.82300
N426        N  0.65965492  0.10297846  0.66313482    -0.78400
C427        C  0.67867354  0.11190954  0.36460901     0.82400
N428        N  0.71529160  0.12910676  0.36372020    -0.80100
C429        C  0.07585285  0.60263024  0.60047112     0.42100
N430        N  0.08610383  0.58132909  0.54977769     0.01000
C431        C  0.96125272  0.43268470  0.43093150    -0.06900
H432        H  0.95476554  0.40645158  0.59232629     0.06500
C433        C  0.07954723  0.44105586  0.58273594    -0.07200
Co434      Co  0.01744177  0.52273905  0.50702766     0.74200
N435        N  0.98305662  0.45256996  0.55132092    -0.26400
Co436      Co  0.00763660  0.44152513  0.50672018     0.74100
C437        C  0.04480472  0.41219038  0.60114666     0.42200
N438        N  0.13361766  0.53024353  0.54974276     0.00600
N439        N  0.03403672  0.43249211  0.55000338     0.00700
N440        N  0.96706149  0.48538122  0.43540655    -0.47200
H441        H  0.01347058  0.56283817  0.59131958     0.06500
N442        N  0.98659372  0.48344879  0.55043874     0.01000
N443        N  0.03392908  0.43244428  0.46322487     0.00800
C444        C  0.04487089  0.41176899  0.41258196     0.42400
N445        N  0.13701257  0.56104403  0.55057950    -0.25800
C446        C  0.03950391  0.57191494  0.43086277    -0.06800
N447        N  0.10253568  0.60590394  0.57882313    -0.47000
N448        N  0.01786792  0.40821662  0.43386098    -0.47200
C449        C  0.07408064  0.60044105  0.41195681     0.42100
N450        N  0.98563691  0.48309266  0.46399284     0.01000
N451        N  0.13669358  0.56057559  0.46194843    -0.25900
N452        N  0.05012153  0.56218380  0.55085004    -0.26400
N453        N  0.13345230  0.52986869  0.46324957     0.00600
H454        H  0.16518830  0.60662401  0.42091799     0.06500
H455        H  0.10708173  0.45115099  0.42276087     0.06600
N456        N  0.98241983  0.45239443  0.46264511    -0.26400
N457        N  0.07002405  0.45165994  0.55081444    -0.26000
N458        N  0.08528616  0.58041879  0.46297461     0.01000
C459        C  0.95299710  0.45538499  0.60166437     0.42400
C460        C  0.15789118  0.58087028  0.58237499    -0.07300
N461        N  0.06991506  0.45145612  0.46269513    -0.26000
H462        H  0.10708425  0.45168748  0.59136329     0.06600
N463        N  0.96884086  0.48605714  0.57969212    -0.47200
H464        H  0.16561013  0.60744522  0.59112219     0.06500
C465        C  0.16767666  0.55806955  0.41236634     0.42200
C466        C  0.04093756  0.57332656  0.58255431    -0.06800
Co467      Co  0.11197134  0.57175725  0.50627586     0.73800
N468        N  0.15181678  0.52796924  0.57878809    -0.47000
C469        C  0.95071488  0.45456241  0.41355013     0.42500
N470        N  0.10118497  0.60427572  0.43330329    -0.47000
Co471      Co  0.10222421  0.49060052  0.50665982     0.73900
C472        C  0.07952551  0.44064957  0.43109626    -0.07300
C473        C  0.96252679  0.43302499  0.58343546    -0.06800
N474        N  0.04930158  0.56144715  0.46264907    -0.26400
N475        N  0.01788542  0.40839937  0.57946486    -0.47100
H476        H  0.95352255  0.40615594  0.42187016     0.06500
C477        C  0.15749594  0.58012371  0.42998834    -0.07300
Cl478      Cl  0.05980575  0.50664189  0.50663626    -0.50300
C479        C  0.16791505  0.55886072  0.60044632     0.42300
H480        H  0.01189509  0.56137364  0.42261599     0.06500
N481        N  0.15165945  0.52738888  0.43439644    -0.47000
C482        C  0.22600448  0.55491929  0.33927485     0.79900
N483        N  0.21268552  0.55779500  0.63766970    -0.78400
C484        C  0.18741442  0.56436560  0.63771275     0.82300
N485        N  0.17447128  0.56706965  0.67311192    -0.78400
C486        C  0.18696813  0.56330566  0.37495640     0.82400
N487        N  0.21208148  0.55644191  0.37453695    -0.80100
C488        C  0.99693940  0.33688345  0.33997723     0.79900
N489        N  0.00998352  0.35574548  0.63841426    -0.78400
C490        C  0.03775661  0.39209406  0.63822633     0.82300
N491        N  0.05165354  0.41039129  0.67351038    -0.78400
C492        C  0.03808764  0.39186833  0.37539209     0.82400
N493        N  0.01057394  0.35544751  0.37504551    -0.80100
C494        C  0.89448000  0.45987227  0.33912480     0.79900
N495        N  0.90854956  0.45738174  0.63797158    -0.78400
C496        C  0.93311696  0.44990643  0.63855258     0.82300
N497        N  0.94501065  0.44623008  0.67420843    -0.78400
C498        C  0.93199292  0.44976366  0.37575088     0.82400
N499        N  0.90727393  0.45717636  0.37472055    -0.80100
C500        C  0.12245903  0.67675076  0.34161480     0.79900
N501        N  0.11047384  0.65877143  0.63933702    -0.78400
C502        C  0.08292455  0.62225046  0.63811144     0.82300
N503        N  0.06835596  0.60319294  0.33956877    -0.78400
C504        C  0.08099370  0.62093860  0.37529952     0.82400
N505        N  0.10823483  0.65736984  0.37605367    -0.80100
C506        C  0.65261860  0.52019206  0.40212218     0.42100
N507        N  0.63180612  0.53104559  0.45274096     0.01000
C508        C  0.48469202  0.40456171  0.57238992    -0.06900
H509        H  0.45804541  0.39596145  0.41272348     0.06500
C510        C  0.48901496  0.52045606  0.42174775    -0.07200
Co511      Co  0.57533060  0.46216638  0.49689694     0.74200
N512        N  0.50465825  0.42571837  0.45279565    -0.26400
Co513      Co  0.49247806  0.44965599  0.49673375     0.74100
C514        C  0.46252515  0.48620189  0.40116002     0.42200
N515        N  0.57837246  0.57603963  0.45372705     0.00600
N516        N  0.48264746  0.47507728  0.45222698     0.00700
N517        N  0.53840032  0.41219060  0.56960059    -0.47200
H518        H  0.61642080  0.45836740  0.41496771     0.06500
N519        N  0.53595762  0.43010971  0.45348091     0.01000
N520        N  0.48179422  0.47505027  0.54063381     0.00800
C521        C  0.45888084  0.48605680  0.58910275     0.42400
N522        N  0.60966431  0.58043842  0.45309252    -0.25800
C523        C  0.62727822  0.48567108  0.57010995    -0.06800
N524        N  0.65501892  0.54719395  0.42224561    -0.47000
N525        N  0.45769353  0.45908847  0.57041567    -0.47200
C526        C  0.65504358  0.52008998  0.58983115     0.42100
N527        N  0.53583902  0.43015600  0.54039210     0.01000
N528        N  0.60919501  0.57977357  0.54136534    -0.25900
N529        N  0.61420571  0.49518448  0.45319142    -0.26400
N530        N  0.57789923  0.57543109  0.54046822     0.00600
H531        H  0.65545848  0.60908505  0.58193276     0.06500
H532        H  0.49572865  0.54781497  0.57591985     0.06600
N533        N  0.50456535  0.42586918  0.54096460    -0.26400
N534        N  0.50027922  0.51093617  0.45275149    -0.26000
N535        N  0.63216292  0.53083580  0.54104376     0.01000
C536        C  0.50753994  0.39538614  0.40293024     0.42400
C537        C  0.62946554  0.60194019  0.42169257    -0.07300
N538        N  0.49931417  0.51086168  0.53976751    -0.26000
H539        H  0.49851773  0.54795389  0.41433925     0.06600
N540        N  0.53873112  0.41231725  0.42425982    -0.47200
H541        H  0.65639049  0.61053742  0.41324082     0.06500
C542        C  0.60583957  0.60952578  0.59146124     0.42200
C543        C  0.62582079  0.48582240  0.42239384    -0.06800
Co544      Co  0.62164421  0.55629706  0.49710378     0.73800
N545        N  0.57570340  0.59408905  0.42473691    -0.47000
C546        C  0.50708837  0.39523729  0.59071502     0.42500
N547        N  0.65627186  0.54693611  0.57079810    -0.47000
Co548      Co  0.53880045  0.54373506  0.49670219     0.73900
C549        C  0.48660162  0.52033009  0.56923679    -0.07300
C550        C  0.48495142  0.40447776  0.42123566    -0.06800
N551        N  0.61461966  0.49500651  0.54035243    -0.26400
N552        N  0.45976000  0.45906312  0.42143534    -0.47100
H553        H  0.45775998  0.39605908  0.58069024     0.06500
C554        C  0.62862475  0.60064862  0.57323335    -0.07300
Cl555      Cl  0.55707141  0.50295180  0.49699145    -0.50300
C556        C  0.60696573  0.61127961  0.40357187     0.42300
H557        H  0.61819385  0.45822055  0.57697661     0.06500
N558        N  0.57489067  0.59294604  0.56978386    -0.47000
C559        C  0.50217052  0.33173156  0.33001751     0.79900
N560        N  0.50281954  0.34706882  0.36523987    -0.78400
C561        C  0.50161878  0.37605063  0.36539061     0.82300
N562        N  0.50082114  0.39046132  0.33014085    -0.78400
C563        C  0.50094372  0.37572560  0.62816569     0.82400
N564        N  0.50180858  0.34652536  0.62816633    -0.80100
C565        C  0.40383144  0.49217795  0.33177808     0.79900
N566        N  0.41767297  0.48866058  0.36590012    -0.78400
C567        C  0.44294092  0.48219394  0.36451054     0.82300
N568        N  0.45504211  0.47958506  0.32850839    -0.78400
C569        C  0.44133765  0.48276112  0.62733906     0.82400
N570        N  0.41621051  0.48962882  0.62903767    -0.80100
C571        C  0.71291391  0.51745208  0.33171314     0.79900
N572        N  0.69855121  0.51967246  0.36622164    -0.78400
C573        C  0.67198348  0.52438652  0.36517594     0.82300
N574        N  0.65898717  0.52609097  0.32931804    -0.78400
C575        C  0.67312113  0.52395512  0.62790131     0.82400
N576        N  0.69983401  0.51925852  0.62913084    -0.80100
C577        C  0.60846630  0.67217341  0.32981502     0.79900
N578        N  0.60881380  0.65706754  0.62827306    -0.78400
C579        C  0.61163405  0.62915444  0.62863881     0.82300
N580        N  0.61332111  0.61562523  0.33078649    -0.78400
C581        C  0.61240718  0.63019949  0.36582922     0.82400
N582        N  0.60970489  0.65823354  0.36526498    -0.80100
C583        C  0.86841814  0.46927369  0.33795602    -0.12300
C584        C  0.84406975  0.45930455  0.63874628     0.03200
C585        C  0.82083241  0.46969463  0.63868200    -0.12800
C586        C  0.82106327  0.48992772  0.33706529     0.18000
C587        C  0.84506231  0.49985382  0.36952118    -0.09900
C588        C  0.86835944  0.48949493  0.36982014    -0.02800
H589        H  0.80197393  0.46144577  0.61392598     0.04600
C590        C  0.79460534  0.49859137  0.33651090     0.20000
H591        H  0.88693317  0.49784589  0.39489349     0.09700
C592        C  0.76369428  0.47856859  0.36128976    -0.16200
C593        C  0.73681259  0.48418906  0.35994092     0.02700
C594        C  0.74068255  0.51052443  0.33346333    -0.11500
C595        C  0.77162894  0.53045597  0.64179161    -0.01600
C596        C  0.79853754  0.52474517  0.64326497    -0.06700
H597        H  0.76007662  0.45783355  0.38117705     0.05700
H598        H  0.77510807  0.55083633  0.62139515     0.09100
Br599      Br  0.84764276  0.52844907  0.41346023    -0.06400
Br600      Br  0.83910371  0.42974287  0.59437339    -0.03400
Br601      Br  0.69405808  0.45280702  0.39260520    -0.00500
Br602      Br  0.84061865  0.55366892  0.60918921    -0.04900
C603        C  0.25215212  0.54586985  0.33869170    -0.12300
C604        C  0.28191601  0.56287627  0.64502231     0.03200
C605        C  0.30487256  0.55216510  0.64403819    -0.12800
C606        C  0.29875432  0.52449216  0.33612017     0.18000
C607        C  0.26939031  0.50785821  0.36353237    -0.09900
C608        C  0.24651226  0.51868655  0.36472448    -0.02800
H609        H  0.32794447  0.56581374  0.62361535     0.04600
C610        C  0.32453573  0.51491966  0.33501972     0.20000
H611        H  0.22367684  0.50517028  0.38547696     0.09700
C612        C  0.34718034  0.52344888  0.36818139    -0.16200
C613        C  0.37313945  0.51654762  0.36801039     0.02700
C614        C  0.37676455  0.50034601  0.33382378    -0.11500
C615        C  0.35396373  0.49200040  0.63384549    -0.01600
C616        C  0.32818508  0.49922015  0.63417953    -0.06700
H617        H  0.34509739  0.53630871  0.39423627     0.05700
H618        H  0.35596844  0.47955803  0.60734304     0.09100
Br619      Br  0.25856943  0.46929453  0.39885469    -0.06400
Br620      Br  0.29406933  0.60246459  0.61058917    -0.03400
Br621      Br  0.40376030  0.53257714  0.41488315    -0.00500
Br622      Br  0.29805107  0.48648658  0.58755809    -0.04900
C623        C  0.96251378  0.29912798  0.34009880    -0.12300
C624        C  0.95037651  0.27565166  0.63973745     0.03200
C625        C  0.91411569  0.24413240  0.63802605    -0.12800
C626        C  0.88957230  0.23582961  0.33575512     0.18000
C627        C  0.90238203  0.25743350  0.37068378    -0.09900
C628        C  0.93865369  0.28843085  0.37282540    -0.02800
H629        H  0.90443909  0.22714444  0.61136786     0.04600
C630        C  0.85007046  0.20773484  0.66279884     0.20000
H631        H  0.94718628  0.30575457  0.39909509     0.09700
C632        C  0.83086580  0.17637775  0.35375022    -0.16200
C633        C  0.79263622  0.15239020  0.35280920     0.02700
C634        C  0.77327004  0.15967536  0.32695284    -0.11500
C635        C  0.79270470  0.18970483  0.63410283    -0.01600
C636        C  0.83079933  0.21387816  0.63540182    -0.06700
H637        H  0.84563733  0.17130044  0.37447786     0.05700
H638        H  0.77812880  0.19553189  0.61400179     0.09100
Br639      Br  0.87054438  0.24866219  0.41428619    -0.06400
Br640      Br  0.98113502  0.28525931  0.59459266    -0.03400
Br641      Br  0.76847458  0.10993477  0.38675167    -0.00500
Br642      Br  0.85486248  0.25661068  0.60177599    -0.04900
C643        C  0.50472511  0.14509479  0.32949651    -0.12300
C644        C  0.48603735  0.14965420  0.35979146     0.03200
C645        C  0.48575079  0.18013284  0.35893653    -0.12800
C646        C  0.50346708  0.20618697  0.66156594     0.18000
C647        C  0.52172180  0.20162050  0.63117981    -0.09900
C648        C  0.52215431  0.17126530  0.63190925    -0.02800
H649        H  0.47131279  0.18338289  0.38216044     0.04600
C650        C  0.50278973  0.23809678  0.32853128     0.20000
H651        H  0.53669083  0.16844022  0.60842810     0.09700
C652        C  0.52895976  0.26903683  0.68447042    -0.16200
C653        C  0.52920957  0.29982034  0.68534974     0.02700
C654        C  0.50297357  0.29990953  0.32981968    -0.11500
C655        C  0.47693954  0.26894837  0.30696433    -0.01600
C656        C  0.47644841  0.23800586  0.30657111    -0.06700
H657        H  0.54941798  0.26930611  0.70123966     0.05700
H658        H  0.45651514  0.26858686  0.28996177     0.09100
Br659      Br  0.54674492  0.23644745  0.58842784    -0.06400
Br660      Br  0.45836489  0.11447016  0.40172456    -0.03400
Br661      Br  0.56730299  0.34171053  0.71534371    -0.00500
Br662      Br  0.43897762  0.19590244  0.27643683    -0.04900
C663        C  0.34355430  0.85533699  0.32823700    -0.12300
C664        C  0.32567552  0.86126295  0.35808546     0.03200
C665        C  0.28739752  0.83853433  0.35974177    -0.12800
C666        C  0.26664462  0.80982377  0.33218186     0.18000
C667        C  0.28444483  0.80598926  0.63378002    -0.09900
C668        C  0.32254471  0.82882013  0.63189981    -0.02800
H669        H  0.27380738  0.84200421  0.38384872     0.04600
C670        C  0.22757723  0.78064054  0.34010998     0.20000
H671        H  0.33576953  0.82413544  0.60853002     0.09700
C672        C  0.20096767  0.77387797  0.64579935    -0.16200
C673        C  0.16543452  0.74105499  0.64716383     0.02700
C674        C  0.15626944  0.71471442  0.34343406    -0.11500
C675        C  0.18195132  0.72339382  0.37342155    -0.01600
C676        C  0.21738924  0.75585941  0.37185199    -0.06700
H677        H  0.20847209  0.79318605  0.62173693     0.05700
H678        H  0.17541045  0.70366725  0.39663717     0.09100
Br679      Br  0.25834610  0.76743124  0.59473832    -0.06400
Br680      Br  0.35178309  0.89975115  0.39717923    -0.03400
Br681      Br  0.13079067  0.73344773  0.60784372    -0.00500
Br682      Br  0.25181804  0.76267074  0.41111096    -0.04900
C683        C  0.60679010  0.70351072  0.32935393    -0.12300
C684        C  0.58407296  0.70542711  0.63574205     0.03200
C685        C  0.58430120  0.73620681  0.63587246    -0.12800
C686        C  0.60688153  0.76528933  0.32904667     0.18000
C687        C  0.62937139  0.76342062  0.35599214    -0.07500
C688        C  0.62901774  0.73259841  0.35619116    -0.02800
H689        H  0.56660421  0.73739812  0.61538509     0.04600
C690        C  0.60618015  0.79713879  0.32871367     0.20000
H691        H  0.64677184  0.73170277  0.37686522     0.09700
C692        C  0.58459135  0.79893216  0.35689363    -0.16200
C693        C  0.58341904  0.82883020  0.35768761     0.02700
C694        C  0.60418058  0.85764472  0.32970468    -0.11500
C695        C  0.62548399  0.85545709  0.63455669    -0.01600
C696        C  0.62675459  0.82561864  0.63406340    -0.06700
H697        H  0.56844525  0.77683352  0.37826706     0.05700
H698        H  0.64175804  0.87737675  0.61303095     0.09100
Br699      Br  0.66166502  0.80287574  0.39214746    -0.06400
Br700      Br  0.55052445  0.66618545  0.59985437    -0.03400
Br701      Br  0.55124603  0.82735608  0.39611838    -0.00500
Br702      Br  0.65762942  0.82518169  0.59548753    -0.04900
C703        C  0.60436791  0.89014493  0.66284694     0.79900
N704        N  0.60447327  0.90502545  0.96079426    -0.78400
C705        C  0.60540853  0.93529660  0.96043847     0.82300
N706        N  0.60582537  0.95058735  0.99553581    -0.78400
C707        C  0.60530963  0.93561142  0.69760086     0.82400
N708        N  0.60430491  0.90532900  0.69784564    -0.80100
C709        C  0.38335902  0.87378182  0.66209972     0.79900
N710        N  0.40140950  0.88108005  0.69730988    -0.78400
C711        C  0.43738388  0.89540051  0.69767017     0.82300
N712        N  0.45574410  0.90316085  0.99589484    -0.78400
C713        C  0.43785923  0.89620445  0.96057072     0.82400
N714        N  0.40190166  0.88187755  0.96046451    -0.80100
C715        C  0.60053973  0.94808760  0.92271218     0.42100
N716        N  0.57334408  0.95122302  0.87262611     0.01000
C717        C  0.63252589  0.10120321  0.75356576    -0.06900
H718        H  0.62333333  0.11772968  0.91383803     0.06500
C719        C  0.49069519  0.02301119  0.90330702    -0.07200
Co720      Co  0.62085388  0.02263234  0.82928109     0.74200
N721        N  0.61831631  0.07792604  0.87323335    -0.26400
Co722      Co  0.58106720  0.06780982  0.82875553     0.74100
C723        C  0.51504129  0.05904467  0.92172249     0.42200
N724        N  0.48195990  0.94590862  0.87213015     0.00600
N725        N  0.54249885  0.05585282  0.87196381     0.00700
N726        N  0.65886815  0.07225137  0.75721461    -0.47200
H727        H  0.65264286  0.00670713  0.91251887     0.06500
N728        N  0.63379234  0.06110174  0.87266734     0.01000
N729        N  0.54291697  0.05557140  0.78479578     0.00800
C730        C  0.51595591  0.05827184  0.73417794     0.42400
N731        N  0.49740893  0.92906900  0.87320828    -0.25800
C732        C  0.62492927  0.98448998  0.75368956    -0.06800
N733        N  0.56897844  0.92925235  0.90181732    -0.47000
N734        N  0.54744271  0.07730435  0.75521104    -0.47200
C735        C  0.60031449  0.94861798  0.73503071     0.42100
N736        N  0.63464923  0.06156608  0.78614683     0.01000
N737        N  0.49723792  0.92868740  0.78492509    -0.25900
N738        N  0.60589779  0.98330820  0.87315347    -0.26400
N739        N  0.48180069  0.94552726  0.78576027     0.00600
H740        H  0.49132027  0.88831753  0.74446209     0.06500
H741        H  0.46368640  0.99984024  0.74479975     0.06600
N742        N  0.61911512  0.07830535  0.78513160    -0.26400
N743        N  0.50994183  0.02377280  0.87236207    -0.26000
N744        N  0.57341010  0.95137171  0.78560237     0.01000
C745        C  0.65680027  0.09579700  0.92393213     0.42400
C746        C  0.48452413  0.90678883  0.90534498    -0.07300
N747        N  0.51030941  0.02350041  0.78440790    -0.26000
H748        H  0.46300226  0.00039851  0.91136228     0.06600
N749        N  0.65718982  0.07120344  0.90235599    -0.47200
H750        H  0.49202016  0.88936077  0.91437738     0.06500
C751        C  0.45751294  0.91003279  0.73515518     0.42200
C752        C  0.62498347  0.98411520  0.90434572    -0.06800
Co753      Co  0.53499136  0.93916469  0.82908748     0.73800
N754        N  0.45826414  0.93582876  0.90143922    -0.47000
C755        C  0.65916431  0.09734753  0.73576472     0.42500
N756        N  0.56889355  0.92960246  0.75612336    -0.47000
Co757      Co  0.49528126  0.98441276  0.82867042     0.73900
C758        C  0.49133713  0.02246908  0.75295879    -0.07300
C759        C  0.63089884  0.10027070  0.90525095    -0.06800
N760        N  0.60599453  0.98347372  0.78516085    -0.26400
N761        N  0.54674919  0.07781319  0.90109998    -0.47100
H762        H  0.62512576  0.11876055  0.74478887     0.06500
C763        C  0.48397099  0.90593073  0.75318160    -0.07300
Cl764      Cl  0.55805516  0.00349782  0.82892298    -0.50300
C765        C  0.45836049  0.91122929  0.92340096     0.42300
H766        H  0.65251794  0.00715435  0.74542088     0.06500
N767        N  0.45777184  0.93501915  0.75669639    -0.47000
C768        C  0.50661264  0.11375863  0.99577551     0.79900
N769        N  0.50823557  0.10008096  0.96026412    -0.78400
C770        C  0.51004103  0.07147522  0.95967866     0.82300
N771        N  0.51106664  0.05692443  0.99465733    -0.78400
C772        C  0.51055137  0.07110505  0.69682154     0.82400
N773        N  0.50876215  0.09970122  0.69731845    -0.80100
C774        C  0.73318261  0.13821377  0.66146628     0.79900
N775        N  0.71404201  0.12897901  0.96010624    -0.78400
C776        C  0.67743331  0.11159349  0.96086054     0.82300
N777        N  0.65965461  0.10297886  0.99646796    -0.78400
C778        C  0.67867399  0.11190998  0.69794211     0.82400
N779        N  0.71529128  0.12910670  0.69705405    -0.80100
C780        C  0.07585054  0.60262949  0.93380513     0.42100
N781        N  0.08610271  0.58132869  0.88311109     0.01000
C782        C  0.96125286  0.43268476  0.76426505    -0.06900
H783        H  0.95476445  0.40644714  0.92566090     0.06500
C784        C  0.07954704  0.44105614  0.91606948    -0.07200
Co785      Co  0.01744088  0.52273864  0.84036112     0.74200
N786        N  0.98305565  0.45256824  0.88465472    -0.26400
Co787      Co  0.00763630  0.44152496  0.84005345     0.74100
C788        C  0.04480445  0.41219026  0.93448036     0.42200
N789        N  0.13361740  0.53024481  0.88307656     0.00600
N790        N  0.03403511  0.43249113  0.88333671     0.00700
N791        N  0.96706132  0.48538139  0.76873965    -0.47200
H792        H  0.01346222  0.56283540  0.92465588     0.06500
N793        N  0.98659300  0.48344860  0.88377245     0.01000
N794        N  0.03392821  0.43244382  0.79655811     0.00800
C795        C  0.04487173  0.41176939  0.74591520     0.42400
N796        N  0.13701253  0.56104456  0.88391389    -0.25800
C797        C  0.03950335  0.57191479  0.76419620    -0.06800
N798        N  0.10253416  0.60590335  0.91215679    -0.47000
N799        N  0.01786806  0.40821686  0.76719449    -0.47200
C800        C  0.07408018  0.60044082  0.74529051     0.42100
N801        N  0.98563676  0.48309310  0.79732620     0.01000
N802        N  0.13669315  0.56057645  0.79528241    -0.25900
N803        N  0.05011897  0.56218325  0.88418460    -0.26400
N804        N  0.13345201  0.52986827  0.79658338     0.00600
H805        H  0.16518781  0.60662982  0.75425422     0.06500
H806        H  0.10708608  0.45115396  0.75609356     0.06600
N807        N  0.98241952  0.45239425  0.79597819    -0.26400
N808        N  0.07002504  0.45166044  0.88414853    -0.26000
N809        N  0.08528456  0.58041774  0.79630861     0.01000
C810        C  0.95299629  0.45538362  0.93499818     0.42400
C811        C  0.15789192  0.58087113  0.91570973    -0.07300
N812        N  0.06991581  0.45145655  0.79602856    -0.26000
H813        H  0.10708758  0.45168942  0.92469959     0.06600
N814        N  0.96884045  0.48605630  0.91302546    -0.47200
H815        H  0.16561177  0.60744648  0.92445844     0.06500
C816        C  0.16767665  0.55807141  0.74569986     0.42200
C817        C  0.04093492  0.57332556  0.91588780    -0.06800
Co818      Co  0.11197054  0.57175728  0.83961006     0.73800
N819        N  0.15181672  0.52796946  0.91212185    -0.47000
C820        C  0.95071464  0.45456209  0.74688316     0.42500
N821        N  0.10118460  0.60427601  0.76663611    -0.47000
Co822      Co  0.10222400  0.49060081  0.83999354     0.73900
C823        C  0.07952616  0.44065031  0.76443020    -0.07300
C824        C  0.96252632  0.43302368  0.91676882    -0.06800
N825        N  0.04930177  0.56144743  0.79598270    -0.26400
N826        N  0.01788502  0.40839950  0.91279752    -0.47100
H827        H  0.95352221  0.40615395  0.75520312     0.06500
C828        C  0.15749483  0.58012502  0.76332369    -0.07300
Cl829      Cl  0.05980525  0.50664171  0.83996983    -0.50300
C830        C  0.16791522  0.55886121  0.93377990     0.42300
H831        H  0.01189563  0.56137385  0.75595003     0.06500
N832        N  0.15165940  0.52738993  0.76772998    -0.47000
C833        C  0.22600358  0.55491862  0.67260852     0.79900
N834        N  0.21268538  0.55779529  0.97100265    -0.78400
C835        C  0.18741517  0.56436570  0.97104622     0.82300
N836        N  0.17447140  0.56706979  0.00644510    -0.78400
C837        C  0.18696770  0.56330634  0.70828988     0.82400
N838        N  0.21208084  0.55644174  0.70787107    -0.80100
C839        C  0.99693946  0.33688314  0.67331040     0.79900
N840        N  0.00998269  0.35574518  0.97174791    -0.78400
C841        C  0.03775583  0.39209375  0.97155930     0.82300
N842        N  0.05165345  0.41039130  0.00684355    -0.78400
C843        C  0.03808727  0.39186765  0.70872532     0.82400
N844        N  0.01057425  0.35544762  0.70837870    -0.80100
C845        C  0.89448004  0.45987210  0.67245791     0.79900
N846        N  0.90854942  0.45738162  0.97130535    -0.78400
C847        C  0.93311663  0.44990619  0.97188658     0.82300
N848        N  0.94501073  0.44623016  0.00754195    -0.78400
C849        C  0.93199261  0.44976350  0.70908411     0.82400
N850        N  0.90727398  0.45717613  0.70805347    -0.80100
C851        C  0.12245912  0.67675096  0.67494746     0.79900
N852        N  0.11047303  0.65877118  0.97266954    -0.78400
C853        C  0.08292369  0.62225012  0.97144524     0.82300
N854        N  0.06835565  0.60319267  0.67290214    -0.78400
C855        C  0.08099345  0.62093861  0.70863240     0.82400
N856        N  0.10823438  0.65736941  0.70938730    -0.80100
C857        C  0.65261814  0.52019152  0.73545584     0.42100
N858        N  0.63180592  0.53104531  0.78607428     0.01000
C859        C  0.48469313  0.40456104  0.90572473    -0.06900
H860        H  0.45805666  0.39596510  0.74606097     0.06500
C861        C  0.48901503  0.52045625  0.75508129    -0.07200
Co862      Co  0.57533103  0.46216686  0.83023071     0.74200
N863        N  0.50466143  0.42571952  0.78613055    -0.26400
Co864      Co  0.49247828  0.44965614  0.83006744     0.74100
C865        C  0.46252550  0.48620192  0.73449361     0.42200
N866        N  0.57837233  0.57603961  0.78706020     0.00600
N867        N  0.48264864  0.47507859  0.78556119     0.00700
N868        N  0.53840092  0.41219046  0.90293437    -0.47200
H869        H  0.61642066  0.45836789  0.74830279     0.06500
N870        N  0.53595736  0.43010999  0.78681510     0.01000
N871        N  0.48179419  0.47505060  0.87396750     0.00800
C872        C  0.45888055  0.48605705  0.92243667     0.42400
N873        N  0.60966460  0.58043865  0.78642563    -0.25800
C874        C  0.62727962  0.48567352  0.90344370    -0.06800
N875        N  0.65501872  0.54719348  0.75557887    -0.47000
N876        N  0.45769361  0.45908843  0.90374884    -0.47200
C877        C  0.65504455  0.52009214  0.92316387     0.42100
N878        N  0.53583809  0.43015615  0.87372547     0.01000
N879        N  0.60919590  0.57977457  0.87469970    -0.25900
N880        N  0.61420556  0.49518479  0.78652534    -0.26400
N881        N  0.57789987  0.57543086  0.87380115     0.00600
H882        H  0.65546107  0.60908744  0.91526988     0.06500
H883        H  0.49572811  0.54781779  0.90925636     0.06600
N884        N  0.50456699  0.42586961  0.87429813    -0.26400
N885        N  0.50027884  0.51093544  0.78608507    -0.26000
N886        N  0.63216303  0.53083599  0.87437726     0.01000
C887        C  0.50754226  0.39538669  0.73626499     0.42400
C888        C  0.62946534  0.60194020  0.75502544    -0.07300
N889        N  0.49931405  0.51086267  0.87310169    -0.26000
H890        H  0.49851714  0.54795260  0.74767334     0.06600
N891        N  0.53873174  0.41231678  0.75759293    -0.47200
H892        H  0.65639071  0.61053769  0.74657287     0.06500
C893        C  0.60583966  0.60952616  0.92479487     0.42200
C894        C  0.62582044  0.48582200  0.75572758    -0.06800
Co895      Co  0.62164454  0.55629755  0.83043704     0.73800
N896        N  0.57570304  0.59408866  0.75807031    -0.47000
C897        C  0.50709016  0.39523769  0.92404807     0.42500
N898        N  0.65627241  0.54693710  0.90413155    -0.47000
Co899      Co  0.53880066  0.54373537  0.83003589     0.73900
C900        C  0.48660114  0.52033045  0.90257100    -0.07300
C901        C  0.48495360  0.40447809  0.75456941    -0.06800
N902        N  0.61462018  0.49500880  0.87368512    -0.26400
N903        N  0.45975977  0.45906313  0.75476800    -0.47100
H904        H  0.45776670  0.39605918  0.91402404     0.06500
C905        C  0.62862530  0.60064938  0.90656758    -0.07300
Cl906      Cl  0.55707152  0.50295201  0.83032495    -0.50300
C907        C  0.60696548  0.61127943  0.73690488     0.42300
H908        H  0.61819736  0.45822980  0.91030867     0.06500
N909        N  0.57489064  0.59294631  0.90311764    -0.47000
C910        C  0.50216998  0.33173135  0.66335170     0.79900
N911        N  0.50281869  0.34706781  0.69857338    -0.78400
C912        C  0.50161874  0.37605094  0.69872452     0.82300
N913        N  0.50082113  0.39046105  0.66347470    -0.78400
C914        C  0.50094432  0.37572570  0.96149939     0.82400
N915        N  0.50180863  0.34652523  0.96149991    -0.80100
C916        C  0.40383125  0.49217802  0.66511215     0.79900
N917        N  0.41767304  0.48866057  0.69923370    -0.78400
C918        C  0.44294090  0.48219401  0.69784412     0.82300
N919        N  0.45504201  0.47958471  0.66184172    -0.78400
C920        C  0.44133768  0.48276078  0.96067227     0.82400
N921        N  0.41621063  0.48962882  0.96237063    -0.80100
C922        C  0.71291407  0.51745212  0.66504604     0.79900
N923        N  0.69855119  0.51967250  0.69955531    -0.78400
C924        C  0.67198331  0.52438615  0.69850898     0.82300
N925        N  0.65898699  0.52609074  0.66265175    -0.78400
C926        C  0.67312158  0.52395554  0.96123457     0.82400
N927        N  0.69983391  0.51925836  0.96246425    -0.80100
C928        C  0.60846622  0.67217361  0.66314824     0.79900
N929        N  0.60881415  0.65706821  0.96160667    -0.78400
C930        C  0.61163384  0.62915459  0.96197217     0.82300
N931        N  0.61332089  0.61562493  0.66411969    -0.78400
C932        C  0.61240686  0.63019957  0.69916249     0.82400
N933        N  0.60970481  0.65823331  0.69859815    -0.80100
C934        C  0.86841786  0.46927330  0.67128820    -0.12300
C935        C  0.84406906  0.45930363  0.97208049     0.03200
C936        C  0.82083136  0.46969324  0.97201600    -0.12800
C937        C  0.82106490  0.48992865  0.67040064     0.18000
C938        C  0.84506261  0.49985387  0.70285422    -0.09900
C939        C  0.86836033  0.48949504  0.70315336    -0.02800
H940        H  0.80197056  0.46144296  0.94725724     0.04600
C941        C  0.79460593  0.49859207  0.66984445     0.20000
H942        H  0.88693368  0.49784571  0.72822424     0.09700
C943        C  0.76369484  0.47856897  0.69462342    -0.16200
C944        C  0.73681312  0.48418946  0.69327431     0.02700
C945        C  0.74068279  0.51052446  0.66679683    -0.11500
C946        C  0.77162791  0.53045500  0.97512572    -0.01600
C947        C  0.79853659  0.52474427  0.97659884    -0.06700
H948        H  0.76007746  0.45783471  0.71451044     0.05700
H949        H  0.77510662  0.55083558  0.95472958     0.09100
Br950      Br  0.84764388  0.52844980  0.74679373    -0.06400
Br951      Br  0.83910291  0.42974158  0.92770793    -0.03400
Br952      Br  0.69405869  0.45280761  0.72593893    -0.00500
Br953      Br  0.84061804  0.55366776  0.94252333    -0.04900
C954        C  0.25215118  0.54586884  0.67202638    -0.12300
C955        C  0.28191452  0.56287567  0.97835551     0.03200
C956        C  0.30487107  0.55216475  0.97737100    -0.12800
C957        C  0.29875347  0.52449139  0.66945516     0.18000
C958        C  0.26938934  0.50785712  0.69686686    -0.09900
C959        C  0.24651086  0.51868514  0.69805924    -0.02800
H960        H  0.32793867  0.56581155  0.95695012     0.04600
C961        C  0.32453522  0.51491962  0.66835464     0.20000
H962        H  0.22367205  0.50516655  0.71881512     0.09700
C963        C  0.34718029  0.52344971  0.70151633    -0.16200
C964        C  0.37313952  0.51654835  0.70134451     0.02700
C965        C  0.37676439  0.50034639  0.66715783    -0.11500
C966        C  0.35396425  0.49199974  0.96717679    -0.01600
C967        C  0.32818552  0.49921992  0.96751153    -0.06700
H968        H  0.34509730  0.53631109  0.72757383     0.05700
H969        H  0.35596970  0.47955479  0.94066945     0.09100
Br970      Br  0.25856887  0.46929351  0.73218865    -0.06400
Br971      Br  0.29406772  0.60246330  0.94392049    -0.03400
Br972      Br  0.40376080  0.53257788  0.74821662    -0.00500
Br973      Br  0.29805109  0.48648647  0.92089076    -0.04900
C974        C  0.96251390  0.29912716  0.67343090    -0.12300
C975        C  0.95037627  0.27565143  0.97307020     0.03200
C976        C  0.91411560  0.24413200  0.97135794    -0.12800
C977        C  0.88957238  0.23582951  0.66908857     0.18000
C978        C  0.90238224  0.25743273  0.70401643    -0.09900
C979        C  0.93865401  0.28842991  0.70615767    -0.02800
H980        H  0.90443786  0.22714111  0.94469296     0.04600
C981        C  0.85007030  0.20773416  0.99613213     0.20000
H982        H  0.94718529  0.30575021  0.73242197     0.09700
C983        C  0.83086573  0.17637798  0.68708383    -0.16200
C984        C  0.79263667  0.15239030  0.68614358     0.02700
C985        C  0.77326940  0.15967549  0.66028605    -0.11500
C986        C  0.79270527  0.18970497  0.96743671    -0.01600
C987        C  0.83079978  0.21387809  0.96873582    -0.06700
H988        H  0.84563848  0.17130076  0.70781294     0.05700
H989        H  0.77813263  0.19553202  0.94733845     0.09100
Br990      Br  0.87054532  0.24866217  0.74761989    -0.06400
Br991      Br  0.98113526  0.28525950  0.92792621    -0.03400
Br992      Br  0.76847499  0.10993529  0.72008619    -0.00500
Br993      Br  0.85486237  0.25661056  0.93510966    -0.04900
C994        C  0.50472372  0.14509330  0.66282701    -0.12300
C995        C  0.48602801  0.14964852  0.69311855     0.03200
C996        C  0.48574158  0.18012711  0.69226354    -0.12800
C997        C  0.50346621  0.20618665  0.99489981     0.18000
C998        C  0.52172064  0.20162120  0.96451454    -0.09900
C999        C  0.52215329  0.17126628  0.96524340    -0.02800
H1000       H  0.47129662  0.18337468  0.71548725     0.04600
C1001       C  0.50278773  0.23809524  0.66186294     0.20000
H1002       H  0.53668659  0.16844302  0.94176749     0.09700
C1003       C  0.52895907  0.26903583  0.01780582    -0.16200
C1004       C  0.52920916  0.29981948  0.01868528     0.02700
C1005       C  0.50297204  0.29990877  0.66315289    -0.11500
C1006       C  0.47693939  0.26894956  0.64029521    -0.01600
C1007       C  0.47644768  0.23800645  0.63990074    -0.06700
H1008       H  0.54942097  0.26930425  0.03457881     0.05700
H1009       H  0.45651329  0.26859063  0.62328842     0.09100
Br1010     Br  0.54674466  0.23644823  0.92176188    -0.06400
Br1011     Br  0.45834680  0.11445747  0.73504249    -0.03400
Br1012     Br  0.56730103  0.34170916  0.04868052    -0.00500
Br1013     Br  0.43898007  0.19590478  0.60976262    -0.04900
C1014       C  0.34355342  0.85533664  0.66157022    -0.12300
C1015       C  0.32567498  0.86126273  0.69141811     0.03200
C1016       C  0.28739645  0.83853370  0.69307429    -0.12800
C1017       C  0.26664401  0.80982286  0.66551454     0.18000
C1018       C  0.28444511  0.80598933  0.96711235    -0.09900
C1019       C  0.32254530  0.82881972  0.96523135    -0.02800
H1020       H  0.27380571  0.84200313  0.71718031     0.04600
C1021       C  0.22757688  0.78064005  0.67344273     0.20000
H1022       H  0.33577206  0.82413423  0.94185774     0.09700
C1023       C  0.20096750  0.77387865  0.97913166    -0.16200
C1024       C  0.16543393  0.74105487  0.98049678     0.02700
C1025       C  0.15626911  0.71471353  0.67676818    -0.11500
C1026       C  0.18195099  0.72339292  0.70675555    -0.01600
C1027       C  0.21738875  0.75585846  0.70518575    -0.06700
H1028       H  0.20847146  0.79318567  0.95506997     0.05700
H1029       H  0.17540907  0.70366258  0.72997510     0.09100
Br1030     Br  0.25834550  0.76743142  0.92807061    -0.06400
Br1031     Br  0.35178268  0.89975148  0.73051171    -0.03400
Br1032     Br  0.13079011  0.73344805  0.94117655    -0.00500
Br1033     Br  0.25181815  0.76267080  0.74444392    -0.04900
C1034       C  0.60679032  0.70351073  0.66268733    -0.12300
C1035       C  0.58407351  0.70542719  0.96907586     0.03200
C1036       C  0.58430115  0.73620659  0.96920571    -0.12800
C1037       C  0.60688190  0.76528963  0.66238112     0.18000
C1038       C  0.62937137  0.76342014  0.68932704    -0.07500
C1039       C  0.62901741  0.73259796  0.68952530    -0.02800
H1040       H  0.56660453  0.73739671  0.94871862     0.04600
C1041       C  0.60618038  0.79713838  0.66204928     0.20000
H1042       H  0.64677077  0.73170173  0.71019975     0.09700
C1043       C  0.58459219  0.79893207  0.69023023    -0.16200
C1044       C  0.58341986  0.82883017  0.69102383     0.02700
C1045       C  0.60418004  0.85764424  0.66304005    -0.11500
C1046       C  0.62548472  0.85545851  0.96788991    -0.01600
C1047       C  0.62675500  0.82561932  0.96739696    -0.06700
H1048       H  0.56844352  0.77682936  0.71160814     0.05700
H1049       H  0.64175878  0.87737844  0.94636437     0.09100
Br1050     Br  0.66166444  0.80287456  0.72548322    -0.06400
Br1051     Br  0.55052449  0.66618531  0.93318858    -0.03400
Br1052     Br  0.55124813  0.82735669  0.72945573    -0.00500
Br1053     Br  0.65763052  0.82518261  0.92882124    -0.04900
loop_ 
_geom_bond_atom_site_label_1 
_geom_bond_atom_site_label_2 
_geom_bond_distance 
_geom_bond_site_symmetry_2 
_ccdc_geom_bond_type 
C1            N6   1.358   1_556  A
C1          N704   1.359       .  A
C1          C343   1.479       .  S
N2            C3   1.357       .  A
N2          C352   1.359       .  A
C3            N4   1.356       .  A
C3           C13   1.458       .  S
N4          C356   1.356       .  A
C5            N6   1.356       .  A
C5          N706   1.356   1_554  A
C5           C33   1.457       .  S
C7            N8   1.355   1_556  A
C7          N714   1.355       .  A
C7          C312   1.476       .  S
N8            C9   1.356       .  A
C9          N712   1.357   1_554  A
C9           C49   1.454       .  S
N10          C11   1.357       .  A
N10         C360   1.357       .  A
C11          N12   1.355       .  A
C11          C63   1.452       .  S
N12         C358   1.355       .  A
C13          N31   1.347       .  A
C13          C50   1.456       .  S
N14          N31   1.323       .  A
N14          N36   1.319       .  A
N14         Co51   2.078       .  S
C15          N40   1.343       .  A
C15          C53   1.458       .  S
C15          H60   1.081       .  S
H16          C57   1.081       .  S
C17          N41   1.343       .  A
C17          C21   1.457       .  S
C17          H46   1.081       .  S
Co18         N36   2.086   1_545  S
Co18         N26   2.068       .  S
Co18         N58   2.088   1_545  S
Co18         N34   2.068       .  S
Co18        Cl62   2.447       .  S
N19          C57   1.343       .  A
N19          N26   1.321       .  A
N19         Co20   2.088       .  S
Co20         N23   2.079       .  S
Co20         N40   2.090       .  S
Co20         N27   2.080       .  S
Co20        Cl62   2.454       .  S
C21          N59   1.347       .  A
C21          C68   1.460       .  S
N22          N29   1.321       .  A
N22          N52   1.319       .  A
N22         Co55   2.067       .  S
N23          N41   1.319       .  A
N23          N59   1.324       .  A
N24          C53   1.344       .  A
N24          N34   1.321       .  A
H25          C50   1.081   1_545  S
N26          N47   1.320       .  A
N27          N45   1.320       .  A
N27          N32   1.323       .  A
C28          N32   1.347       .  A
C28          C56   1.456       .  S
C28          C70   1.458       .  S
N29          C44   1.344       .  A
N29         Co51   2.092       .  S
C30          N58   1.343       .  A
C30          C33   1.456       .  S
C30          H64   1.081   1_565  S
C33          N54   1.346       .  A
N34          N40   1.320       .  A
N35          C61   1.345       .  A
N35          N37   1.320       .  A
N35         Co51   2.092       .  S
N36          C50   1.343       .  A
N37          N65   1.319       .  A
N37         Co55   2.065       .  S
H38          C61   1.082       .  S
H39          C56   1.081   1_565  S
N41         Co55   2.086   1_545  S
N42          N54   1.323       .  A
N42          N58   1.320       .  A
N42         Co51   2.078       .  S
C43          N47   1.343       .  A
C43          C57   1.456       .  S
C43          C74   1.451       .  S
C44          C63   1.458       .  S
C44          H48   1.081       .  S
N45          C56   1.342       .  A
N45         Co55   2.087   1_545  S
C49          N65   1.342       .  A
C49          C61   1.460       .  S
Co51        Cl62   2.454   1_565  S
N52          C63   1.343       .  A
C53          C76   1.453       .  S
Co55        Cl62   2.447   1_565  S
C66          N67   1.361       .  A
C66         N422   1.359       .  A
C66         C643   1.485       .  S
N67          C68   1.358       .  A
C68          N69   1.356       .  A
N69         C421   1.356       .  A
C70          N71   1.357       .  A
C70         N771   1.356   1_554  A
N71         C768   1.359   1_554  A
C72          N77   1.356   1_556  A
C72         N775   1.355       .  A
C72         C283   1.470       .  S
N73          C74   1.354       .  A
N73         C423   1.355       .  A
C74          N75   1.356       .  A
N75         C427   1.356       .  A
C76          N77   1.356       .  A
C76         N777   1.356   1_554  A
C78          N96   1.346       .  A
C78         C115   1.458       .  S
C78         C151   1.460       .  S
N79          N96   1.322       .  A
N79         N101   1.320       .  A
N79        Co116   2.077       .  S
C80         N105   1.347       .  A
C80         C118   1.464       .  S
C80         H125   1.082       .  S
H81         C122   1.081       .  S
C82         N106   1.344       .  A
C82          C86   1.456       .  S
C82         H111   1.081       .  S
Co83        N101   2.091       .  S
Co83         N91   2.063   1_455  S
Co83        N123   2.083       .  S
Co83         N99   2.070   1_455  S
Co83       Cl127   2.450       .  S
N84         C122   1.347       .  A
N84          N91   1.320       .  A
N84         Co85   2.100   1_655  S
Co85         N88   2.074       .  S
Co85        N105   2.101   1_455  S
Co85         N92   2.078       .  S
Co85       Cl127   2.451       .  S
C86         N124   1.345       .  A
C86         C139   1.455       .  S
N87          N94   1.320       .  A
N87         N117   1.320       .  A
N87        Co120   2.067       .  S
N88         N106   1.320       .  A
N88         N124   1.320       .  A
N89         C118   1.344       .  A
N89          N99   1.321       .  A
H90         C115   1.081       .  S
N91         N112   1.319       .  A
N92         N110   1.321       .  A
N92          N97   1.321       .  A
C93          N97   1.347       .  A
C93         C121   1.455       .  S
C93         C141   1.456       .  S
N94         C109   1.347       .  A
N94        Co116   2.097       .  S
C95         N123   1.344       .  A
C95          C98   1.455       .  S
C95         H129   1.081       .  S
C98         N119   1.345       .  A
C98         C153   1.453       .  S
N99         N105   1.320       .  A
N100        C126   1.347       .  A
N100        N102   1.319       .  A
N100       Co116   2.101       .  S
N101        C115   1.345       .  A
N102        N130   1.321       .  A
N102       Co120   2.066       .  S
H103        C126   1.081       .  S
H104        C121   1.081       .  S
N106       Co120   2.085       .  S
N107        N119   1.319       .  A
N107        N123   1.320       .  A
N107       Co116   2.074       .  S
C108        N112   1.343       .  A
C108        C122   1.462       .  S
C108        C145   1.458       .  S
C109        C128   1.461       .  S
C109        H113   1.081       .  S
N110        C121   1.344       .  A
N110       Co120   2.085       .  S
C114        N130   1.343       .  A
C114        C126   1.463       .  S
C114        C135   1.461       .  S
Co116      Cl127   2.451       .  S
N117        C128   1.344       .  A
C118        C147   1.463       .  S
Co120      Cl127   2.451       .  S
C128        C133   1.459       .  S
C131        N136   1.358       .  A
C131        N834   1.356   1_554  A
C131        C252   1.481       .  S
N132        C133   1.357       .  A
N132        C482   1.356       .  A
C133        N134   1.358       .  A
N134        C486   1.359       .  A
C135        N136   1.360       .  A
C135        N836   1.359       .  A
C137        N142   1.355   1_655  A
C137        N840   1.353   1_654  A
C137        C272   1.479       .  S
N138        C139   1.354       .  A
N138        C488   1.353   1_455  A
C139        N140   1.358       .  A
N140        C492   1.358       .  A
C141        N142   1.354       .  A
C141        N842   1.359       .  A
C143        N148   1.360       .  A
C143        N846   1.355   1_554  A
C143        C232   1.490       .  S
N144        C145   1.356       .  A
N144        C494   1.355       .  A
C145        N146   1.358       .  A
N146        C498   1.359       .  A
C147        N148   1.361       .  A
C147        N848   1.359       .  A
C149        N154   1.353       .  A
C149        N852   1.357   1_554  A
C149        C323   1.476       .  S
N150        C151   1.358       .  A
N150        C500   1.357       .  A
C151        N503   1.359       .  A
N152        C153   1.358       .  A
N152        C853   1.359   1_554  A
C153        N154   1.353       .  A
C155        N173   1.349       .  A
C155        C192   1.452       .  S
C155        C222   1.460       .  S
N156        N173   1.327       .  A
N156        N178   1.321       .  A
N156       Co193   2.092       .  S
C157        N182   1.344       .  A
C157        C195   1.458       .  S
C157        H202   1.081       .  S
H158        C199   1.081       .  S
C159        N183   1.337       .  A
C159        C163   1.452       .  S
C159        H188   1.082       .  S
Co160       N178   2.081       .  S
Co160       N168   2.075       .  S
Co160       N200   2.081       .  S
Co160       N176   2.079       .  S
Co160      Cl204   2.457       .  S
N161        C199   1.344       .  A
N161        N168   1.320       .  A
N161       Co162   2.093       .  S
Co162       N165   2.091       .  S
Co162       N182   2.092       .  S
Co162       N169   2.099       .  S
Co162      Cl204   2.450       .  S
C163        N201   1.349       .  A
C163        C216   1.459       .  S
N164        N171   1.320       .  A
N164        N194   1.322       .  A
N164       Co197   2.072       .  S
N165        N183   1.321       .  A
N165        N201   1.327       .  A
N166        C195   1.346       .  A
N166        N176   1.322       .  A
H167        C192   1.082       .  S
N168        N189   1.322       .  A
N169        N187   1.320       .  A
N169        N174   1.328       .  A
C170        N174   1.352       .  A
C170        C198   1.452       .  S
C170        C218   1.464       .  S
N171        C186   1.345       .  A
N171       Co193   2.095       .  S
C172        N200   1.340       .  A
C172        C175   1.454       .  S
C172        H206   1.082       .  S
C175        N196   1.351       .  A
C175        C224   1.465       .  S
N176        N182   1.321       .  A
N177        C203   1.344       .  A
N177        N179   1.321       .  A
N177       Co193   2.094       .  S
N178        C192   1.338       .  A
N179        N207   1.321       .  A
N179       Co197   2.075       .  S
H180        C203   1.081       .  S
H181        C198   1.082       .  S
N183       Co197   2.078       .  S
N184        N196   1.328       .  A
N184        N200   1.321       .  A
N184       Co193   2.097       .  S
C185        N189   1.345       .  A
C185        C199   1.459       .  S
C185        C210   1.460       .  S
C186        C205   1.460       .  S
C186        H190   1.081       .  S
N187        C198   1.339       .  A
N187       Co197   2.077       .  S
C191        N207   1.345       .  A
C191        C203   1.458       .  S
C191        C228   1.457       .  S
Co193      Cl204   2.450       .  S
N194        C205   1.345       .  A
C195        C212   1.459       .  S
Co197      Cl204   2.457       .  S
C205        C230   1.460       .  S
C208        N209   1.358   1_556  A
C208        N915   1.358       .  A
C208        C303   1.476       .  S
N209        C210   1.357       .  A
C210        N211   1.357   1_554  A
N211        C914   1.357       .  A
C212        N213   1.358       .  A
C212        N562   1.357       .  A
N213        C559   1.358       .  A
C214        N215   1.356   1_556  A
C214        N921   1.363       .  A
C214        C263   1.493   1_556  S
N215        C216   1.354       .  A
C216        N217   1.356   1_554  A
N217        C920   1.357       .  A
C218        N219   1.362       .  A
C218        N568   1.357       .  A
N219        C565   1.363       .  A
C220        N221   1.358   1_556  A
C220        N927   1.362       .  A
C220        C243   1.483   1_556  S
N221        C222   1.355       .  A
C222        N223   1.357   1_554  A
N223        C926   1.358       .  A
C224        N225   1.362       .  A
C224        N574   1.358       .  A
N225        C571   1.362       .  A
C226        N231   1.359   1_556  A
C226        N929   1.356       .  A
C226        C332   1.479       .  S
N227        C228   1.356       .  A
N227        C577   1.356       .  A
C228        N580   1.357       .  A
N229        C230   1.357   1_556  A
N229        C930   1.357       .  A
C230        N231   1.358       .  A
C232        C237   1.408       .  A
C232        C935   1.418   1_554  A
C233        C234   1.400       .  A
C233        C583   1.418       .  A
C233       Br249   1.922       .  S
C234        H238   1.084       .  S
C234        C586   1.400       .  A
C235        C239   1.482       .  S
C235        C236   1.407       .  A
C235        C936   1.400   1_554  A
C236        C237   1.401       .  A
C236       Br248   1.918       .  S
C237        H240   1.084       .  S
C239        C241   1.401       .  A
C239        C947   1.409   1_554  A
C241        H246   1.084       .  S
C241        C242   1.399       .  A
C242        C243   1.414       .  A
C242       Br250   1.921       .  S
C243        C946   1.406   1_554  A
C244        H247   1.084       .  S
C244        C245   1.403       .  A
C244        C594   1.406       .  A
C245        C590   1.409       .  A
C245       Br251   1.918       .  S
C252        C257   1.405       .  A
C252        C955   1.412   1_554  A
C253        C254   1.400       .  A
C253        C603   1.412       .  A
C253       Br269   1.920       .  S
C254        H258   1.084       .  S
C254        C606   1.402       .  A
C255        C259   1.484       .  S
C255        C256   1.410       .  A
C255        C956   1.402   1_554  A
C256        C257   1.401       .  A
C256       Br268   1.919       .  S
C257        H260   1.084       .  S
C259        C261   1.399       .  A
C259        C967   1.408   1_554  A
C261        H266   1.084       .  S
C261        C262   1.399       .  A
C262        C263   1.421       .  A
C262       Br270   1.924       .  S
C263        C966   1.409   1_554  A
C264        H267   1.084       .  S
C264        C265   1.402       .  A
C264        C614   1.409       .  A
C265        C610   1.408       .  A
C265       Br271   1.919       .  S
C272        C277   1.406       .  A
C272        C975   1.415   1_554  A
C273        C274   1.398       .  A
C273        C623   1.415       .  A
C273       Br289   1.921       .  S
C274        H278   1.084       .  S
C274        C626   1.401       .  A
C275        C981   1.472   1_554  S
C275        C276   1.406       .  A
C275        C976   1.401   1_554  A
C276        C277   1.392       .  A
C276       Br288   1.921       .  S
C277        H280   1.083       .  S
C279        C626   1.472       .  S
C279        C285   1.408       .  A
C279        C632   1.402       .  A
C281        H286   1.084       .  S
C281        C282   1.398       .  A
C281        C981   1.402   1_554  A
C282        C283   1.410   1_554  A
C282       Br290   1.919       .  S
C283        C986   1.402       .  A
C284        H287   1.084       .  S
C284        C285   1.394       .  A
C284        C634   1.402       .  A
C285       Br291   1.922       .  S
C292        C768   1.485       .  S
C292        C293   1.417   1_556  A
C292        C999   1.407       .  A
C293        C294   1.400       .  A
C293       Br309   1.921       .  S
C294        H298   1.084       .  S
C294        C997   1.400   1_554  A
C295        C650   1.476       .  S
C295        C296   1.405       .  A
C295        C645   1.400       .  A
C296        C297   1.399       .  A
C296       Br308   1.918       .  S
C297        H300   1.083       .  S
C297        C643   1.407       .  A
C299        C997   1.476       .  S
C299        C305   1.407       .  A
C299       C1003   1.401   1_556  A
C301        H306   1.083       .  S
C301        C302   1.400       .  A
C301        C650   1.401       .  A
C302        C654   1.411       .  A
C302       Br310   1.920       .  S
C303        C304   1.405       .  A
C303       C1004   1.411   1_556  A
C304        H307   1.084       .  S
C304        C305   1.400       .  A
C305       Br311   1.918       .  S
C312        C313   1.413   1_556  A
C312       C1019   1.403       .  A
C313        C314   1.400       .  A
C313       Br329   1.921       .  S
C314        H318   1.084       .  S
C314        C315   1.403   1_554  A
C315        C319   1.475   1_556  S
C315       C1018   1.408       .  A
C316        C317   1.393       .  A
C316        C666   1.408       .  A
C316       Br328   1.921       .  S
C317        H320   1.083       .  S
C317        C663   1.403       .  A
C319        C325   1.408       .  A
C319       C1023   1.404   1_554  A
C321        H326   1.083       .  S
C321        C322   1.400       .  A
C321        C670   1.404       .  A
C322        C674   1.410       .  A
C322       Br330   1.919       .  S
C323        C324   1.405       .  A
C323       C1024   1.410   1_554  A
C324        H327   1.084       .  S
C324        C325   1.392       .  A
C325       Br331   1.922       .  S
C332        C337   1.405   1_556  A
C332       C1035   1.414       .  A
C333        C334   1.400       .  A
C333        C683   1.414       .  A
C333       Br349   1.921       .  S
C334        H338   1.084       .  S
C334        C686   1.401       .  A
C335        C339   1.474       .  S
C335        C336   1.405   1_556  A
C335       C1036   1.401       .  A
C336        C337   1.398       .  A
C336       Br348   1.918       .  S
C337        H340   1.083       .  S
C339        C341   1.400   1_556  A
C339       C1047   1.405       .  A
C341        H346   1.084       .  S
C341        C342   1.399       .  A
C342        C343   1.414   1_554  A
C342       Br350   1.921       .  S
C343       C1046   1.406       .  A
C344        H347   1.084       .  S
C344        C345   1.399       .  A
C344        C694   1.406       .  A
C345        C690   1.405       .  A
C345       Br351   1.918       .  S
C352        N357   1.358       .  A
C352        C694   1.479       .  S
N353        C703   1.359       .  A
N353        C354   1.357       .  A
C354        N355   1.356       .  A
C354        C364   1.458       .  S
N355        C707   1.356       .  A
C356        N357   1.356       .  A
C356        C384   1.457       .  S
C358        N359   1.355       .  A
C358        C663   1.476       .  S
N359        C360   1.356       .  A
C360        C400   1.454       .  S
N361        C711   1.357       .  A
N361        C362   1.357       .  A
C362        N363   1.355       .  A
C362        C414   1.453       .  S
N363        C709   1.355       .  A
C364        N382   1.347       .  A
C364        C401   1.456       .  S
N365        N382   1.323       .  A
N365        N387   1.319       .  A
N365       Co402   2.078       .  S
C366        N391   1.343       .  A
C366        C404   1.458       .  S
C366        H411   1.081       .  S
H367        C408   1.081       .  S
C368        N392   1.343       .  A
C368        C372   1.457       .  S
C368        H397   1.081       .  S
Co369       N387   2.086   1_545  S
Co369       N377   2.068       .  S
Co369       N409   2.088   1_545  S
Co369       N385   2.068       .  S
Co369      Cl413   2.447       .  S
N370        C408   1.343       .  A
N370        N377   1.321       .  A
N370       Co371   2.088       .  S
Co371       N374   2.079       .  S
Co371       N391   2.090       .  S
Co371       N378   2.080       .  S
Co371      Cl413   2.454       .  S
C372        N410   1.347       .  A
C372        C419   1.460       .  S
N373        N380   1.321       .  A
N373        N403   1.319       .  A
N373       Co406   2.066       .  S
N374        N392   1.319       .  A
N374        N410   1.324       .  A
N375        C404   1.344       .  A
N375        N385   1.321       .  A
H376        C401   1.081   1_545  S
N377        N398   1.319       .  A
N378        N396   1.320       .  A
N378        N383   1.323       .  A
C379        N383   1.347       .  A
C379        C407   1.456       .  S
C379        C421   1.458       .  S
N380        C395   1.344       .  A
N380       Co402   2.092       .  S
C381        N409   1.343       .  A
C381        C384   1.456       .  S
C381        H415   1.081   1_565  S
C384        N405   1.346       .  A
N385        N391   1.320       .  A
N386        C412   1.345       .  A
N386        N388   1.320       .  A
N386       Co402   2.092       .  S
N387        C401   1.343       .  A
N388        N416   1.319       .  A
N388       Co406   2.065       .  S
H389        C412   1.082       .  S
H390        C407   1.081   1_565  S
N392       Co406   2.086   1_545  S
N393        N405   1.323       .  A
N393        N409   1.320       .  A
N393       Co402   2.078       .  S
C394        N398   1.343       .  A
C394        C408   1.456       .  S
C394        C425   1.451       .  S
C395        C414   1.458       .  S
C395        H399   1.081       .  S
N396        C407   1.342       .  A
N396       Co406   2.087   1_545  S
C400        N416   1.342       .  A
C400        C412   1.459       .  S
Co402      Cl413   2.454   1_565  S
N403        C414   1.343       .  A
C404        C427   1.453       .  S
Co406      Cl413   2.447   1_565  S
C417        N418   1.361       .  A
C417        N773   1.359       .  A
C417        C994   1.485       .  S
N418        C419   1.358       .  A
C419        N420   1.356       .  A
N420        C772   1.356       .  A
C421        N422   1.357       .  A
C423        N428   1.356       .  A
C423        C634   1.470       .  S
N424        C774   1.355       .  A
N424        C425   1.354       .  A
C425        N426   1.356       .  A
N426        C778   1.356       .  A
C427        N428   1.356       .  A
C429        N447   1.346       .  A
C429        C466   1.458       .  S
C429        C502   1.460       .  S
N430        N447   1.322       .  A
N430        N452   1.320       .  A
N430       Co467   2.077       .  S
C431        N456   1.347       .  A
C431        C469   1.464       .  S
C431        H476   1.082       .  S
H432        C473   1.081       .  S
C433        N457   1.344       .  A
C433        C437   1.456       .  S
C433        H462   1.081       .  S
Co434       N452   2.091       .  S
Co434       N442   2.063   1_455  S
Co434       N474   2.082       .  S
Co434       N450   2.070   1_455  S
Co434      Cl478   2.450       .  S
N435        C473   1.347       .  A
N435        N442   1.320       .  A
N435       Co436   2.100   1_655  S
Co436       N439   2.074       .  S
Co436       N456   2.101   1_455  S
Co436       N443   2.078       .  S
Co436      Cl478   2.451       .  S
C437        N475   1.345       .  A
C437        C490   1.455       .  S
N438        N445   1.320       .  A
N438        N468   1.320       .  A
N438       Co471   2.067       .  S
N439        N457   1.320       .  A
N439        N475   1.320       .  A
N440        C469   1.344       .  A
N440        N450   1.321       .  A
H441        C466   1.081       .  S
N442        N463   1.319       .  A
N443        N461   1.320       .  A
N443        N448   1.321       .  A
C444        N448   1.346       .  A
C444        C472   1.455       .  S
C444        C492   1.456       .  S
N445        C460   1.347       .  A
N445       Co467   2.097       .  S
C446        N474   1.344       .  A
C446        C449   1.455       .  S
C446        H480   1.081       .  S
C449        N470   1.345       .  A
C449        C504   1.453       .  S
N450        N456   1.320       .  A
N451        C477   1.347       .  A
N451        N453   1.319       .  A
N451       Co467   2.101       .  S
N452        C466   1.345       .  A
N453        N481   1.321       .  A
N453       Co471   2.066       .  S
H454        C477   1.081       .  S
H455        C472   1.081       .  S
N457       Co471   2.085       .  S
N458        N470   1.319       .  A
N458        N474   1.320       .  A
N458       Co467   2.074       .  S
C459        N463   1.343       .  A
C459        C473   1.462       .  S
C459        C496   1.458       .  S
C460        C479   1.461       .  S
C460        H464   1.081       .  S
N461        C472   1.344       .  A
N461       Co471   2.085       .  S
C465        N481   1.343       .  A
C465        C477   1.463       .  S
C465        C486   1.461       .  S
Co467      Cl478   2.451       .  S
N468        C479   1.344       .  A
C469        C498   1.463       .  S
Co471      Cl478   2.451       .  S
C479        C484   1.459       .  S
C482        N487   1.358       .  A
C482        C603   1.481       .  S
N483        C833   1.356       .  A
N483        C484   1.357       .  A
C484        N485   1.358       .  A
N485        C837   1.359       .  A
C486        N487   1.360       .  A
C488        N493   1.355   1_655  A
C488        C623   1.479       .  S
N489        C839   1.353   1_455  A
N489        C490   1.354       .  A
C490        N491   1.358       .  A
N491        C843   1.359       .  A
C492        N493   1.354       .  A
C494        N499   1.360       .  A
C494        C583   1.490       .  S
N495        C845   1.355       .  A
N495        C496   1.356       .  A
C496        N497   1.358       .  A
N497        C849   1.359       .  A
C498        N499   1.361       .  A
C500        N505   1.353       .  A
C500        C674   1.476       .  S
N501        C851   1.357       .  A
N501        C502   1.358       .  A
C502        N854   1.359       .  A
N503        C504   1.358       .  A
C504        N505   1.353       .  A
C506        N524   1.349       .  A
C506        C543   1.452       .  S
C506        C573   1.460       .  S
N507        N524   1.327       .  A
N507        N529   1.321       .  A
N507       Co544   2.092       .  S
C508        N533   1.344       .  A
C508        C546   1.458       .  S
C508        H553   1.081       .  S
H509        C550   1.081       .  S
C510        N534   1.338       .  A
C510        C514   1.452       .  S
C510        H539   1.082       .  S
Co511       N529   2.081       .  S
Co511       N519   2.075       .  S
Co511       N551   2.081       .  S
Co511       N527   2.079       .  S
Co511      Cl555   2.457       .  S
N512        C550   1.344       .  A
N512        N519   1.320       .  A
N512       Co513   2.093       .  S
Co513       N516   2.091       .  S
Co513       N533   2.092       .  S
Co513       N520   2.099       .  S
Co513      Cl555   2.450       .  S
C514        N552   1.349       .  A
C514        C567   1.459       .  S
N515        N522   1.320       .  A
N515        N545   1.322       .  A
N515       Co548   2.072       .  S
N516        N534   1.321       .  A
N516        N552   1.327       .  A
N517        C546   1.346       .  A
N517        N527   1.322       .  A
H518        C543   1.082       .  S
N519        N540   1.322       .  A
N520        N538   1.320       .  A
N520        N525   1.328       .  A
C521        N525   1.352       .  A
C521        C549   1.452       .  S
C521        C569   1.464       .  S
N522        C537   1.345       .  A
N522       Co544   2.095       .  S
C523        N551   1.340       .  A
C523        C526   1.454       .  S
C523        H557   1.082       .  S
C526        N547   1.351       .  A
C526        C575   1.465       .  S
N527        N533   1.321       .  A
N528        C554   1.344       .  A
N528        N530   1.321       .  A
N528       Co544   2.094       .  S
N529        C543   1.338       .  A
N530        N558   1.321       .  A
N530       Co548   2.075       .  S
H531        C554   1.081       .  S
H532        C549   1.082       .  S
N534       Co548   2.078       .  S
N535        N547   1.328       .  A
N535        N551   1.321       .  A
N535       Co544   2.097       .  S
C536        N540   1.345       .  A
C536        C550   1.459       .  S
C536        C561   1.460       .  S
C537        C556   1.460       .  S
C537        H541   1.081       .  S
N538        C549   1.339       .  A
N538       Co548   2.077       .  S
C542        N558   1.345       .  A
C542        C554   1.458       .  S
C542        C579   1.457       .  S
Co544      Cl555   2.450       .  S
N545        C556   1.345       .  A
C546        C563   1.459       .  S
Co548      Cl555   2.457       .  S
C556        C581   1.459       .  S
C559        N560   1.358       .  A
C559        C654   1.476       .  S
N560        C561   1.357       .  A
C561        N562   1.357       .  A
C563        N913   1.357       .  A
C563        N564   1.358       .  A
N564        C910   1.358       .  A
C565        N566   1.356       .  A
C565        C614   1.493       .  S
N566        C567   1.354       .  A
C567        N568   1.356       .  A
C569        N919   1.357       .  A
C569        N570   1.362       .  A
N570        C916   1.363       .  A
C571        N572   1.358       .  A
C571        C594   1.483       .  S
N572        C573   1.355       .  A
C573        N574   1.357       .  A
C575        N925   1.358       .  A
C575        N576   1.362       .  A
N576        C922   1.362       .  A
C577        N582   1.358       .  A
C577        C683   1.479       .  S
N578        C928   1.356       .  A
N578        C579   1.356       .  A
C579        N931   1.357       .  A
N580        C581   1.357       .  A
C581        N582   1.358       .  A
C583        C588   1.408       .  A
C584        C934   1.418       .  A
C584        C585   1.400       .  A
C584       Br600   1.922       .  S
C585        H589   1.084       .  S
C585        C937   1.400       .  A
C586        C590   1.482       .  S
C586        C587   1.407       .  A
C587        C588   1.401       .  A
C587       Br599   1.918       .  S
C588        H591   1.084       .  S
C590        C592   1.401       .  A
C592        H597   1.084       .  S
C592        C593   1.399       .  A
C593        C594   1.414       .  A
C593       Br601   1.921       .  S
C595        H598   1.084       .  S
C595        C945   1.406       .  A
C595        C596   1.403       .  A
C596        C941   1.409       .  A
C596       Br602   1.918       .  S
C603        C608   1.405       .  A
C604        C954   1.412       .  A
C604        C605   1.400       .  A
C604       Br620   1.920       .  S
C605        H609   1.083       .  S
C605        C957   1.402       .  A
C606        C610   1.484       .  S
C606        C607   1.410       .  A
C607        C608   1.401       .  A
C607       Br619   1.919       .  S
C608        H611   1.084       .  S
C610        C612   1.399       .  A
C612        H617   1.084       .  S
C612        C613   1.399       .  A
C613        C614   1.421       .  A
C613       Br621   1.924       .  S
C615        H618   1.084       .  S
C615        C965   1.409       .  A
C615        C616   1.402       .  A
C616        C961   1.408       .  A
C616       Br622   1.919       .  S
C623        C628   1.406       .  A
C624        C974   1.415       .  A
C624        C625   1.398       .  A
C624       Br640   1.921       .  S
C625        H629   1.084       .  S
C625        C977   1.401       .  A
C626        C627   1.406       .  A
C627        C628   1.392       .  A
C627       Br639   1.921       .  S
C628        H631   1.083       .  S
C630        C977   1.472       .  S
C630        C983   1.402       .  A
C630        C636   1.408       .  A
C632        H637   1.084       .  S
C632        C633   1.398       .  A
C633        C634   1.410       .  A
C633       Br641   1.919       .  S
C635        H638   1.084       .  S
C635        C985   1.402       .  A
C635        C636   1.394       .  A
C636       Br642   1.922       .  S
C643        C644   1.417       .  A
C644        C645   1.400       .  A
C644       Br660   1.921       .  S
C645        H649   1.084       .  S
C646       C1001   1.476       .  S
C646        C996   1.400       .  A
C646        C647   1.405       .  A
C647        C648   1.399       .  A
C647       Br659   1.918       .  S
C648        H651   1.084       .  S
C648        C994   1.407       .  A
C650        C656   1.407       .  A
C652        H657   1.083       .  S
C652       C1001   1.401       .  A
C652        C653   1.400       .  A
C653       C1005   1.411       .  A
C653       Br661   1.920       .  S
C654        C655   1.405       .  A
C655        H658   1.083       .  S
C655        C656   1.400       .  A
C656       Br662   1.918       .  S
C663        C664   1.413       .  A
C664        C665   1.400       .  A
C664       Br680   1.921       .  S
C665        H669   1.084       .  S
C665        C666   1.403       .  A
C666        C670   1.475       .  S
C667       C1017   1.408       .  A
C667        C668   1.393       .  A
C667       Br679   1.921       .  S
C668        H671   1.083       .  S
C668       C1014   1.403       .  A
C670        C676   1.408       .  A
C672        H677   1.083       .  S
C672       C1021   1.404       .  A
C672        C673   1.400       .  A
C673       C1025   1.410       .  A
C673       Br681   1.919       .  S
C674        C675   1.405       .  A
C675        H678   1.084       .  S
C675        C676   1.392       .  A
C676       Br682   1.922       .  S
C683        C688   1.405       .  A
C684       C1034   1.414       .  A
C684        C685   1.400       .  A
C684       Br700   1.921       .  S
C685        H689   1.084       .  S
C685       C1037   1.401       .  A
C686        C690   1.474       .  S
C686        C687   1.405       .  A
C687        C688   1.398       .  A
C687       Br699   1.918       .  S
C688        H691   1.083       .  S
C690        C692   1.400       .  A
C692        H697   1.084       .  S
C692        C693   1.399       .  A
C693        C694   1.414       .  A
C693       Br701   1.921       .  S
C695        H698   1.084       .  S
C695       C1045   1.406       .  A
C695        C696   1.399       .  A
C696       C1041   1.405       .  A
C696       Br702   1.918       .  S
C703        N708   1.358       .  A
C703       C1045   1.479       .  S
N704        C705   1.357       .  A
C705        N706   1.356       .  A
C705        C715   1.458       .  S
C707        N708   1.356       .  A
C707        C735   1.457       .  S
C709        N710   1.355       .  A
C709       C1014   1.476       .  S
N710        C711   1.356       .  A
C711        C751   1.454       .  S
N712        C713   1.357       .  A
C713        N714   1.355       .  A
C713        C765   1.452       .  S
C715        N733   1.347       .  A
C715        C752   1.456       .  S
N716        N733   1.323       .  A
N716        N738   1.319       .  A
N716       Co753   2.078       .  S
C717        N742   1.343       .  A
C717        C755   1.458       .  S
C717        H762   1.081       .  S
H718        C759   1.081       .  S
C719        N743   1.343       .  A
C719        C723   1.457       .  S
C719        H748   1.082       .  S
Co720       N738   2.086   1_545  S
Co720       N728   2.068       .  S
Co720       N760   2.088   1_545  S
Co720       N736   2.068       .  S
Co720      Cl764   2.447       .  S
N721        C759   1.343       .  A
N721        N728   1.321       .  A
N721       Co722   2.088       .  S
Co722       N725   2.079       .  S
Co722       N742   2.090       .  S
Co722       N729   2.080       .  S
Co722      Cl764   2.454       .  S
C723        N761   1.347       .  A
C723        C770   1.460       .  S
N724        N731   1.321       .  A
N724        N754   1.319       .  A
N724       Co757   2.066       .  S
N725        N743   1.319       .  A
N725        N761   1.324       .  A
N726        C755   1.344       .  A
N726        N736   1.321       .  A
H727        C752   1.081   1_545  S
N728        N749   1.319       .  A
N729        N747   1.320       .  A
N729        N734   1.323       .  A
C730        N734   1.347       .  A
C730        C758   1.456       .  S
C730        C772   1.458       .  S
N731        C746   1.344       .  A
N731       Co753   2.092       .  S
C732        N760   1.343       .  A
C732        C735   1.456       .  S
C732        H766   1.081   1_565  S
C735        N756   1.346       .  A
N736        N742   1.320       .  A
N737        C763   1.345       .  A
N737        N739   1.320       .  A
N737       Co753   2.092       .  S
N738        C752   1.343       .  A
N739        N767   1.319       .  A
N739       Co757   2.065       .  S
H740        C763   1.082       .  S
H741        C758   1.081   1_565  S
N743       Co757   2.086   1_545  S
N744        N756   1.323       .  A
N744        N760   1.320       .  A
N744       Co753   2.078       .  S
C745        N749   1.343       .  A
C745        C759   1.456       .  S
C745        C776   1.451       .  S
C746        C765   1.458       .  S
C746        H750   1.081       .  S
N747        C758   1.342       .  A
N747       Co757   2.087   1_545  S
C751        N767   1.342       .  A
C751        C763   1.460       .  S
Co753      Cl764   2.454   1_565  S
N754        C765   1.343       .  A
C755        C778   1.453       .  S
Co757      Cl764   2.447   1_565  S
C768        N769   1.361       .  A
N769        C770   1.358       .  A
C770        N771   1.356       .  A
C772        N773   1.357       .  A
C774        N779   1.356       .  A
C774        C985   1.470       .  S
N775        C776   1.354       .  A
C776        N777   1.356       .  A
C778        N779   1.356       .  A
C780        N798   1.346       .  A
C780        C817   1.458       .  S
C780        C853   1.460       .  S
N781        N798   1.322       .  A
N781        N803   1.320       .  A
N781       Co818   2.077       .  S
C782        N807   1.347       .  A
C782        C820   1.464       .  S
C782        H827   1.082       .  S
H783        C824   1.081       .  S
C784        N808   1.344       .  A
C784        C788   1.456       .  S
C784        H813   1.081       .  S
Co785       N803   2.091       .  S
Co785       N793   2.063   1_455  S
Co785       N825   2.082       .  S
Co785       N801   2.070   1_455  S
Co785      Cl829   2.450       .  S
N786        C824   1.347       .  A
N786        N793   1.320       .  A
N786       Co787   2.100   1_655  S
Co787       N790   2.074       .  S
Co787       N807   2.101   1_455  S
Co787       N794   2.078       .  S
Co787      Cl829   2.451       .  S
C788        N826   1.345       .  A
C788        C841   1.455       .  S
N789        N796   1.320       .  A
N789        N819   1.320       .  A
N789       Co822   2.067       .  S
N790        N808   1.320       .  A
N790        N826   1.320       .  A
N791        C820   1.344       .  A
N791        N801   1.321       .  A
H792        C817   1.081       .  S
N793        N814   1.319       .  A
N794        N812   1.321       .  A
N794        N799   1.321       .  A
C795        N799   1.346       .  A
C795        C823   1.455       .  S
C795        C843   1.456       .  S
N796        C811   1.347       .  A
N796       Co818   2.097       .  S
C797        N825   1.344       .  A
C797        C800   1.455       .  S
C797        H831   1.081       .  S
C800        N821   1.345       .  A
C800        C855   1.453       .  S
N801        N807   1.320       .  A
N802        C828   1.347       .  A
N802        N804   1.320       .  A
N802       Co818   2.101       .  S
N803        C817   1.345       .  A
N804        N832   1.321       .  A
N804       Co822   2.066       .  S
H805        C828   1.081       .  S
H806        C823   1.081       .  S
N808       Co822   2.085       .  S
N809        N821   1.319       .  A
N809        N825   1.320       .  A
N809       Co818   2.074       .  S
C810        N814   1.343       .  A
C810        C824   1.462       .  S
C810        C847   1.458       .  S
C811        C830   1.461       .  S
C811        H815   1.081       .  S
N812        C823   1.344       .  A
N812       Co822   2.085       .  S
C816        N832   1.343       .  A
C816        C828   1.463       .  S
C816        C837   1.461       .  S
Co818      Cl829   2.451       .  S
N819        C830   1.344       .  A
C820        C849   1.463       .  S
Co822      Cl829   2.451       .  S
C830        C835   1.459       .  S
C833        N838   1.358       .  A
C833        C954   1.481       .  S
N834        C835   1.357       .  A
C835        N836   1.358   1_556  A
C837        N838   1.360       .  A
C839        N844   1.355   1_655  A
C839        C974   1.479       .  S
N840        C841   1.354       .  A
C841        N842   1.358   1_556  A
C843        N844   1.354       .  A
C845        N850   1.360       .  A
C845        C934   1.490       .  S
N846        C847   1.356       .  A
C847        N848   1.358   1_556  A
C849        N850   1.361       .  A
C851        N856   1.353       .  A
C851       C1025   1.476       .  S
N852        C853   1.358       .  A
N854        C855   1.358       .  A
C855        N856   1.352       .  A
C857        N875   1.349       .  A
C857        C894   1.452       .  S
C857        C924   1.460       .  S
N858        N875   1.327       .  A
N858        N880   1.321       .  A
N858       Co895   2.092       .  S
C859        N884   1.344       .  A
C859        C897   1.458       .  S
C859        H904   1.081       .  S
H860        C901   1.081       .  S
C861        N885   1.338       .  A
C861        C865   1.452       .  S
C861        H890   1.082       .  S
Co862       N880   2.081       .  S
Co862       N870   2.075       .  S
Co862       N902   2.081       .  S
Co862       N878   2.079       .  S
Co862      Cl906   2.457       .  S
N863        C901   1.344       .  A
N863        N870   1.320       .  A
N863       Co864   2.093       .  S
Co864       N867   2.091       .  S
Co864       N884   2.092       .  S
Co864       N871   2.099       .  S
Co864      Cl906   2.450       .  S
C865        N903   1.349       .  A
C865        C918   1.459       .  S
N866        N873   1.320       .  A
N866        N896   1.322       .  A
N866       Co899   2.072       .  S
N867        N885   1.321       .  A
N867        N903   1.327       .  A
N868        C897   1.346       .  A
N868        N878   1.322       .  A
H869        C894   1.082       .  S
N870        N891   1.323       .  A
N871        N889   1.320       .  A
N871        N876   1.328       .  A
C872        N876   1.352       .  A
C872        C900   1.452       .  S
C872        C920   1.464       .  S
N873        C888   1.345       .  A
N873       Co895   2.095       .  S
C874        N902   1.340       .  A
C874        C877   1.454       .  S
C874        H908   1.082       .  S
C877        N898   1.351       .  A
C877        C926   1.465       .  S
N878        N884   1.321       .  A
N879        C905   1.344       .  A
N879        N881   1.321       .  A
N879       Co895   2.094       .  S
N880        C894   1.338       .  A
N881        N909   1.321       .  A
N881       Co899   2.075       .  S
H882        C905   1.081       .  S
H883        C900   1.082       .  S
N885       Co899   2.078       .  S
N886        N898   1.328       .  A
N886        N902   1.321       .  A
N886       Co895   2.097       .  S
C887        N891   1.345       .  A
C887        C901   1.459       .  S
C887        C912   1.460       .  S
C888        C907   1.460       .  S
C888        H892   1.081       .  S
N889        C900   1.339       .  A
N889       Co899   2.077       .  S
C893        N909   1.345       .  A
C893        C905   1.458       .  S
C893        C930   1.457       .  S
Co895      Cl906   2.450       .  S
N896        C907   1.345       .  A
C897        C914   1.459       .  S
Co899      Cl906   2.457       .  S
C907        C932   1.459       .  S
C910        N911   1.358       .  A
C910       C1005   1.476       .  S
N911        C912   1.358       .  A
C912        N913   1.357       .  A
C914        N915   1.358       .  A
C916        N917   1.356       .  A
C916        C965   1.493       .  S
N917        C918   1.354       .  A
C918        N919   1.356       .  A
C920        N921   1.362       .  A
C922        N923   1.358       .  A
C922        C945   1.483       .  S
N923        C924   1.355       .  A
C924        N925   1.357       .  A
C926        N927   1.362       .  A
C928        N933   1.359       .  A
C928       C1034   1.479       .  S
N929        C930   1.356       .  A
N931        C932   1.357       .  A
C932        N933   1.358       .  A
C934        C939   1.408       .  A
C935        C936   1.400       .  A
C935       Br951   1.922       .  S
C936        H940   1.084       .  S
C937        C941   1.482       .  S
C937        C938   1.407       .  A
C938        C939   1.402       .  A
C938       Br950   1.918       .  S
C939        H942   1.084       .  S
C941        C943   1.401       .  A
C943        H948   1.084       .  S
C943        C944   1.399       .  A
C944        C945   1.414       .  A
C944       Br952   1.921       .  S
C946        H949   1.084       .  S
C946        C947   1.403       .  A
C947       Br953   1.918       .  S
C954        C959   1.405       .  A
C955        C956   1.400       .  A
C955       Br971   1.920       .  S
C956        H960   1.083       .  S
C957        C961   1.484       .  S
C957        C958   1.410       .  A
C958        C959   1.401       .  A
C958       Br970   1.919       .  S
C959        H962   1.084       .  S
C961        C963   1.399       .  A
C963        H968   1.084       .  S
C963        C964   1.399       .  A
C964        C965   1.421       .  A
C964       Br972   1.924       .  S
C966        H969   1.084       .  S
C966        C967   1.402       .  A
C967       Br973   1.919       .  S
C974        C979   1.406       .  A
C975        C976   1.398       .  A
C975       Br991   1.921       .  S
C976        H980   1.084       .  S
C977        C978   1.406       .  A
C978        C979   1.392       .  A
C978       Br990   1.921       .  S
C979        H982   1.083       .  S
C981        C987   1.408       .  A
C983        H988   1.084       .  S
C983        C984   1.398       .  A
C984        C985   1.411       .  A
C984       Br992   1.919       .  S
C986        H989   1.084       .  S
C986        C987   1.394       .  A
C987       Br993   1.922       .  S
C994        C995   1.417       .  A
C995        C996   1.400       .  A
C995      Br1011   1.921       .  S
C996       H1000   1.084       .  S
C997        C998   1.405       .  A
C998        C999   1.399       .  A
C998      Br1010   1.918       .  S
C999       H1002   1.083       .  S
C1001      C1007   1.407       .  A
C1003      H1008   1.083       .  S
C1003      C1004   1.400       .  A
C1004     Br1012   1.920       .  S
C1005      C1006   1.405       .  A
C1006      H1009   1.084       .  S
C1006      C1007   1.400       .  A
C1007     Br1013   1.918       .  S
C1014      C1015   1.413       .  A
C1015      C1016   1.400       .  A
C1015     Br1031   1.921       .  S
C1016      H1020   1.084       .  S
C1016      C1017   1.403       .  A
C1017      C1021   1.475       .  S
C1018      C1019   1.393       .  A
C1018     Br1030   1.921       .  S
C1019      H1022   1.084       .  S
C1021      C1027   1.408       .  A
C1023      H1028   1.083       .  S
C1023      C1024   1.400       .  A
C1024     Br1032   1.919       .  S
C1025      C1026   1.405       .  A
C1026      H1029   1.084       .  S
C1026      C1027   1.392       .  A
C1027     Br1033   1.922       .  S
C1034      C1039   1.405       .  A
C1035      C1036   1.400       .  A
C1035     Br1051   1.921       .  S
C1036      H1040   1.084       .  S
C1037      C1041   1.474       .  S
C1037      C1038   1.405       .  A
C1038      C1039   1.398       .  A
C1038     Br1050   1.918       .  S
C1039      H1042   1.083       .  S
C1041      C1043   1.400       .  A
C1043      H1048   1.084       .  S
C1043      C1044   1.399       .  A
C1044      C1045   1.414       .  A
C1044     Br1052   1.921       .  S
C1046      H1049   1.084       .  S
C1046      C1047   1.399       .  A
C1047     Br1053   1.918       .  S
