geometry optimzed in LAMMPS
_audit_creation_date              2020-11-30 
_audit_creation_method            'lammps2cif' 
_symmetry_space_group_name_H-M    'P1' 
_symmetry_Int_Tables_number       1 
_symmetry_cell_setting            triclinic 
loop_ 
_symmetry_equiv_pos_as_xyz 
  x,y,z 
_cell_length_a                    43.97883865759765 
_cell_length_b                    44.002156171650896 
_cell_length_c                    43.94550141407833 
_cell_angle_alpha                 90.00302431304434 
_cell_angle_beta                  89.87745611504502 
_cell_angle_gamma                 90.01366241956009 
loop_ 
_atom_site_label 
_atom_site_type_symbol 
_atom_site_fract_x 
_atom_site_fract_y 
_atom_site_fract_z 
_atom_site_charge 
N1          N  0.57066660  0.33917548  0.48396384    -0.07150
N2          N  0.58827578  0.36090911  0.47315358    -0.59270
N3          N  0.57166532  0.27047014  0.51453179    -0.06830
N4          N  0.59633971  0.25673793  0.52476254    -0.61400
N5          N  0.57153144  0.27011659  0.48449432    -0.06430
N6          N  0.59601816  0.25607476  0.47423253    -0.59250
N7          N  0.57053814  0.33954614  0.51384673    -0.06110
N8          N  0.58809433  0.36155761  0.52412361    -0.61750
C9          C  0.59876455  0.37470857  0.49846573     0.95020
C10         C  0.61129105  0.24744352  0.49948962     0.94800
N11         N  0.48911173  0.27234961  0.56672960    -0.07340
N12         N  0.47856552  0.25987052  0.59196544    -0.59850
N13         N  0.52039521  0.34082135  0.56404285    -0.05460
N14         N  0.53118178  0.36275999  0.58142124    -0.61100
N15         N  0.49053325  0.34122514  0.56404259    -0.07370
N16         N  0.48026519  0.36345370  0.58136010    -0.60120
N17         N  0.51914507  0.27188403  0.56685207    -0.05100
N18         N  0.52901306  0.25903040  0.59214787    -0.61190
Mn19       Mn  0.54578311  0.30525242  0.54015223     1.18440
C20         C  0.50353793  0.25131549  0.60767030     0.97110
C21         C  0.50586259  0.37672569  0.59182762     0.97770
N22         N  0.51966248  0.27082878  0.43212718    -0.07390
N23         N  0.52926973  0.25685897  0.40726574    -0.63700
N24         N  0.49130922  0.34053992  0.43415870    -0.06190
N25         N  0.48111820  0.36232027  0.41630245    -0.64370
N26         N  0.52114064  0.33985594  0.43383453    -0.06890
N27         N  0.53203314  0.36118951  0.41572886    -0.63960
N28         N  0.48969415  0.27139341  0.43263951    -0.05790
N29         N  0.47879008  0.25761487  0.40834233    -0.64650
Mn30       Mn  0.54607863  0.30453724  0.45831634     1.10660
C31         C  0.50359446  0.24831898  0.39264396     0.98330
C32         C  0.50676200  0.37506811  0.40519923     0.98400
N33         N  0.44087251  0.34201460  0.51408066    -0.06900
N34         N  0.42338133  0.36400512  0.52453075    -0.62280
N35         N  0.43772892  0.27291724  0.48413690    -0.06220
N36         N  0.41272082  0.26092662  0.47287792    -0.59010
N37         N  0.43631248  0.27343446  0.51413869    -0.07530
N38         N  0.40986405  0.26221188  0.52328259    -0.61840
N39         N  0.44112575  0.34194556  0.48420859    -0.06520
N40         N  0.42373579  0.36390533  0.47355970    -0.59030
Mn41       Mn  0.46394224  0.30673388  0.54007203     1.20190
Mn42       Mn  0.46479636  0.30634012  0.45860036     1.10090
Cl43       Cl  0.50515506  0.30458600  0.49936636    -0.87000
C44         C  0.41309358  0.37752245  0.49899489     0.95330
C45         C  0.39531291  0.25434046  0.49726967     0.95130
N46         N  0.57148012  0.50537941  0.34397596    -0.07150
N47         N  0.58993310  0.51583750  0.36522196    -0.59270
N48         N  0.57246047  0.47539315  0.27479696    -0.06830
N49         N  0.59775014  0.46562526  0.26169531    -0.61400
N50         N  0.57182689  0.50537800  0.27456093    -0.06430
N51         N  0.59643739  0.51606066  0.26111422    -0.59250
N52         N  0.57150986  0.47553668  0.34397499    -0.06110
N53         N  0.58987274  0.46495865  0.36520258    -0.61750
C54         C  0.60102884  0.49034489  0.37835119     0.95020
C55         C  0.61246646  0.49117868  0.25286823     0.94800
N56         N  0.49018333  0.42229695  0.27720247    -0.07340
N57         N  0.48039901  0.39620008  0.26587341    -0.59850
N58         N  0.52127554  0.42574283  0.34532786    -0.05460
N59         N  0.53210552  0.40832917  0.36723037    -0.61100
N60         N  0.49141878  0.42591688  0.34598629    -0.07370
N61         N  0.48118743  0.40867544  0.36828419    -0.60120
N62         N  0.52018489  0.42327086  0.27607858    -0.05100
N63         N  0.53078015  0.39814243  0.26362661    -0.61190
Mn64       Mn  0.54656476  0.44972942  0.30958049     1.18440
C65         C  0.50594205  0.38126013  0.25738973     0.97110
C66         C  0.50679681  0.39808520  0.38138810     0.97770
N67         N  0.52001213  0.55729322  0.27530006    -0.07390
N68         N  0.53034339  0.58212320  0.26195585    -0.63700
N69         N  0.49083602  0.55551980  0.34458414    -0.06190
N70         N  0.48040320  0.57350585  0.36621821    -0.64370
N71         N  0.52069730  0.55538865  0.34443850    -0.06890
N72         N  0.53133704  0.57335918  0.36594472    -0.63960
N73         N  0.49000505  0.55753442  0.27562125    -0.05790
N74         N  0.47987714  0.58272695  0.26269844    -0.64650
Mn75       Mn  0.54623058  0.53107534  0.30924034     1.10660
C76         C  0.50520035  0.59785348  0.25385292     0.98330
C77         C  0.50592618  0.58424257  0.37939593     0.98400
N78         N  0.44117272  0.47578799  0.34629367    -0.06900
N79         N  0.42364817  0.46565926  0.36847954    -0.62280
N80         N  0.43784862  0.50461664  0.27684788    -0.06220
N81         N  0.41242580  0.51462311  0.26446100    -0.59010
N82         N  0.43773019  0.47460475  0.27743734    -0.07530
N83         N  0.41218445  0.46420719  0.26554324    -0.61840
N84         N  0.44111864  0.50562372  0.34575663    -0.06520
N85         N  0.42362669  0.51654753  0.36756301    -0.59030
Mn86       Mn  0.46485308  0.44937599  0.31131387     1.20190
Mn87       Mn  0.46468709  0.53106337  0.31017777     1.10090
Cl88       Cl  0.50554299  0.49029604  0.30897921    -0.87000
C89         C  0.41312040  0.49136243  0.38159391     0.95330
C90         C  0.39651278  0.48928853  0.25727484     0.95130
N91         N  0.52145021  0.64344215  0.43019053    -0.07150
N92         N  0.53169898  0.62140074  0.41264611    -0.59270
N93         N  0.49211625  0.71274096  0.42828785    -0.06830
N94         N  0.48155158  0.72580099  0.40340828    -0.61400
N95         N  0.52213037  0.71228142  0.42753593    -0.06430
N96         N  0.53200268  0.72493119  0.40207619    -0.59250
N97         N  0.49159701  0.64365556  0.43059079    -0.06110
N98         N  0.48077181  0.62170150  0.41325329    -0.61750
C99         C  0.50608858  0.60799043  0.40245871     0.95020
C100        C  0.50656665  0.73366230  0.38721837     0.94800
N101        N  0.44133081  0.71341180  0.51171565    -0.07340
N102        N  0.41645916  0.72608581  0.52277631    -0.59850
N103        N  0.44225290  0.64434222  0.48158500    -0.05460
N104        N  0.42406022  0.62286589  0.47128723    -0.61100
N105        N  0.44255638  0.64444495  0.51147717    -0.07370
N106        N  0.42453324  0.62299249  0.52224554    -0.60120
N107        N  0.44030134  0.71312061  0.48167553    -0.05100
N108        N  0.41455536  0.72548842  0.47231736    -0.61190
Mn109      Mn  0.46630234  0.67892384  0.45523174     1.18440
C110        C  0.39981070  0.73363994  0.49814337     0.97110
C111        C  0.41339250  0.60967793  0.49689514     0.97770
N112        N  0.57513629  0.71175316  0.47895709    -0.07390
N113        N  0.60012178  0.72459357  0.46827519    -0.63700
N114        N  0.57216581  0.64274490  0.50911326    -0.06190
N115        N  0.58965217  0.62078529  0.51950422    -0.64370
N116        N  0.57202764  0.64280962  0.47923840    -0.06890
N117        N  0.58945280  0.62084923  0.46853223    -0.63960
N118        N  0.57561764  0.71165972  0.50898044    -0.05790
N119        N  0.60089387  0.72450940  0.51883339    -0.64650
Mn120      Mn  0.54795560  0.67803426  0.45370737     1.10660
C121        C  0.61604118  0.73264869  0.49328721     0.98330
C122        C  0.60003202  0.60726962  0.49395486     0.98400
N123        N  0.49325190  0.64402153  0.56085691    -0.06900
N124        N  0.48251542  0.62294389  0.57930112    -0.62280
N125        N  0.52459085  0.71270118  0.56181948    -0.06220
N126        N  0.53609140  0.72572472  0.58625464    -0.59010
N127        N  0.49460448  0.71290140  0.56318617    -0.07530
N128        N  0.48563690  0.72586401  0.58885848    -0.61840
N129        N  0.52309759  0.64354892  0.56044380    -0.06520
N130        N  0.53342363  0.62208688  0.57869034    -0.59030
Mn131      Mn  0.46769723  0.67915460  0.53704340     1.20190
Mn132      Mn  0.54910314  0.67802465  0.53529958     1.10090
Cl133      Cl  0.50773089  0.67965109  0.49529800    -0.87000
C134        C  0.50781168  0.60936230  0.59003832     0.95330
C135        C  0.51173288  0.73393362  0.60306294     0.95130
N136        N  0.65715537  0.42673879  0.51285394    -0.07150
N137        N  0.63521270  0.40930407  0.52353586    -0.59270
N138        N  0.72622751  0.42256790  0.48420152    -0.06830
N139        N  0.73851504  0.39669628  0.47500441    -0.61400
N140        N  0.72610919  0.42377546  0.51421185    -0.06430
N141        N  0.73844444  0.39888377  0.52547384    -0.59250
N142        N  0.65742234  0.42624394  0.48295813    -0.06110
N143        N  0.63570845  0.40838725  0.47256984    -0.61750
C144        C  0.62199333  0.39825026  0.49815699     0.95020
C145        C  0.74641893  0.38213888  0.50091590     0.94800
N146        N  0.72901673  0.50387773  0.43008718    -0.07340
N147        N  0.74356215  0.51250490  0.40514578    -0.59850
N148        N  0.65927419  0.47519158  0.43108478    -0.05460
N149        N  0.63756121  0.46473421  0.41317047    -0.61100
N150        N  0.65985044  0.50503282  0.43034388    -0.07370
N151        N  0.63857035  0.51558112  0.41203615    -0.60120
N152        N  0.72880727  0.47392292  0.43182793    -0.05100
N153        N  0.74354228  0.46214545  0.40851687    -0.61190
Mn154      Mn  0.69325020  0.44922640  0.45716874     1.18440
C155        C  0.75291311  0.48627029  0.39195285     0.97110
C156        C  0.62479028  0.49021752  0.40164380     0.97770
N157        N  0.72572148  0.47695011  0.56575114    -0.07390
N158        N  0.73764830  0.46803218  0.59194474    -0.63700
N159        N  0.65719758  0.50729433  0.56128127    -0.06190
N160        N  0.63570306  0.51838238  0.57911899    -0.64370
N161        N  0.65693508  0.47747884  0.56198436    -0.06890
N162        N  0.63528497  0.46750002  0.58021096    -0.63960
N163        N  0.72645299  0.50686443  0.56391256    -0.05790
N164        N  0.73926737  0.51833041  0.58844497    -0.64650
Mn165      Mn  0.69193205  0.45096659  0.53889981     1.10660
C166        C  0.74643237  0.49406318  0.60587617     0.98330
C167        C  0.62215260  0.49324864  0.59050980     0.98400
N168        N  0.65901909  0.55571029  0.47974497    -0.06900
N169        N  0.63729930  0.57323535  0.46878960    -0.62280
N170        N  0.72765563  0.55748505  0.51096587    -0.06220
N171        N  0.74005948  0.58237593  0.52201053    -0.59010
N172        N  0.72772032  0.55843880  0.48094291    -0.07530
N173        N  0.73962777  0.58452626  0.47158735    -0.61840
N174        N  0.65851202  0.55584750  0.50963913    -0.06520
N175        N  0.63646760  0.57343413  0.51976650    -0.59030
Mn176      Mn  0.69439192  0.53107812  0.45485187     1.20190
Mn177      Mn  0.69284012  0.53203512  0.53655761     1.10090
Cl178      Cl  0.69376593  0.49081888  0.49686865    -0.87000
C179        C  0.62339297  0.58388391  0.49407030     0.95330
C180        C  0.74758768  0.59925439  0.49746537     0.95130
N181        N  0.44150179  0.50932417  0.64987082    -0.07150
N182        N  0.42384698  0.52005016  0.62814361    -0.59270
N183        N  0.43843707  0.47915187  0.71886967    -0.06830
N184        N  0.41322774  0.46927047  0.73202841    -0.61400
N185        N  0.43900334  0.50913467  0.71907342    -0.06430
N186        N  0.41432430  0.51969955  0.73255378    -0.59250
N187        N  0.44121586  0.47948155  0.64983605    -0.06110
N188        N  0.42339752  0.46915227  0.62806641    -0.61750
C189        C  0.41295566  0.49471237  0.61467846     0.95020
C190        C  0.39836101  0.49471396  0.74086972     0.94800
N191        N  0.52056874  0.42697193  0.71904850    -0.07340
N192        N  0.53096922  0.40223364  0.73241969    -0.59850
N193        N  0.49098017  0.42921625  0.64987381    -0.05460
N194        N  0.48048921  0.41135817  0.62820614    -0.61100
N195        N  0.52083748  0.42915460  0.64992574    -0.07370
N196        N  0.53141259  0.41120968  0.62830296    -0.60120
N197        N  0.49057198  0.42668784  0.71892917    -0.05100
N198        N  0.48051236  0.40162782  0.73216495    -0.61190
Mn199      Mn  0.46500194  0.45334187  0.68480669     1.18440
C200        C  0.50592294  0.38653125  0.74081334     0.97110
C201        C  0.50596559  0.40051839  0.61488456     0.97770
N202        N  0.49138968  0.56088960  0.71936575    -0.07390
N203        N  0.48053625  0.58561510  0.73238521    -0.63700
N204        N  0.52190634  0.55901355  0.65018032    -0.06190
N205        N  0.53273437  0.57618970  0.62807142    -0.64370
N206        N  0.49204362  0.55907882  0.65000254    -0.06890
N207        N  0.48181089  0.57637606  0.62773479    -0.63960
N208        N  0.52139971  0.56171021  0.71914915    -0.05790
N209        N  0.53096794  0.58734406  0.73169151    -0.64650
Mn210      Mn  0.46574274  0.53487522  0.68498334     1.10660
C211        C  0.50528027  0.60203970  0.74024987     0.98330
C212        C  0.50746374  0.58666757  0.61422314     0.98400
N213        N  0.57108985  0.47902937  0.65016648    -0.06900
N214        N  0.58834999  0.46834435  0.62805005    -0.62280
N215        N  0.57349752  0.50872196  0.71937603    -0.06220
N216        N  0.59884092  0.51829529  0.73239202    -0.59010
N217        N  0.57273545  0.47872449  0.71940093    -0.07530
N218        N  0.59734798  0.46784327  0.73260144    -0.61840
N219        N  0.57150882  0.50886945  0.65025448    -0.06520
N220        N  0.58904772  0.51923540  0.62816451    -0.59030
Mn221      Mn  0.54655948  0.45324480  0.68503309     1.20190
Mn222      Mn  0.54741175  0.53489633  0.68523544     1.10090
Cl223      Cl  0.50616901  0.49410381  0.68611257    -0.87000
C224        C  0.59917618  0.49367566  0.61447363     0.95330
C225        C  0.61357056  0.49259164  0.74070737     0.95130
N226        N  0.35412845  0.42858683  0.48382563    -0.07150
N227        N  0.37598531  0.41092653  0.47337817    -0.59270
N228        N  0.28510204  0.42729156  0.51424065    -0.06830
N229        N  0.27192607  0.40291040  0.52564015    -0.61400
N230        N  0.28522886  0.42592806  0.48426354    -0.06430
N231        N  0.27239120  0.40029137  0.47519532    -0.59250
N232        N  0.35432003  0.42919694  0.51368352    -0.06110
N233        N  0.37632184  0.41185844  0.52434299    -0.61750
C234        C  0.38968465  0.40087910  0.49890316     0.95020
C235        C  0.26398980  0.38609093  0.50125782     0.94800
N236        N  0.28525292  0.50951982  0.56610084    -0.07340
N237        N  0.27331272  0.51890290  0.59217237    -0.59850
N238        N  0.35416842  0.47989787  0.56314894    -0.05460
N239        N  0.37601347  0.46940124  0.58075039    -0.61100
N240        N  0.35408112  0.50974328  0.56318965    -0.07370
N241        N  0.37592006  0.52030440  0.58081500    -0.60120
N242        N  0.28505121  0.47952162  0.56517722    -0.05100
N243        N  0.27255406  0.46850718  0.59011982    -0.61190
Mn244      Mn  0.31930299  0.45380880  0.53923562     1.18440
C245        C  0.26534025  0.49305305  0.60698055     0.97110
C246        C  0.38944518  0.49484896  0.59137671     0.97770
N247        N  0.28512271  0.47733196  0.43110275    -0.07390
N248        N  0.27203973  0.46670950  0.40625813    -0.63700
N249        N  0.35434948  0.50732616  0.43304741    -0.06190
N250        N  0.37634213  0.51751838  0.41532599    -0.64370
N251        N  0.35411907  0.47749014  0.43330327    -0.06890
N252        N  0.37597899  0.46661192  0.41585882    -0.63960
N253        N  0.28528150  0.50730452  0.43056184    -0.05790
N254        N  0.27225460  0.51714379  0.40533953    -0.64650
Mn255      Mn  0.31915880  0.45205558  0.45784054     1.10660
C256        C  0.26382497  0.49164416  0.39030353     0.98330
C257        C  0.38968852  0.49184106  0.40502494     0.98400
N258        N  0.35394873  0.55894930  0.51242773    -0.06900
N259        N  0.37585472  0.57661470  0.52273330    -0.62280
N260        N  0.28478606  0.55961242  0.48211120    -0.06220
N261        N  0.27205384  0.58398508  0.47034394    -0.59010
N262        N  0.28521737  0.56166369  0.51209966    -0.07530
N263        N  0.27333271  0.58801754  0.52061823    -0.61840
N264        N  0.35410561  0.55831975  0.48253907    -0.06520
N265        N  0.37615090  0.57563601  0.47178144    -0.59030
Mn266      Mn  0.31908536  0.53535453  0.53879767     1.20190
Mn267      Mn  0.31926037  0.53342229  0.45685046     1.10090
Cl268      Cl  0.31848602  0.49369492  0.49818938    -0.87000
C269        C  0.38955251  0.58665839  0.49713603     0.95330
C270        C  0.26507563  0.60180055  0.49428854     0.95130
N271        N  0.85375580  0.55868876  0.01426000    -0.07150
N272        N  0.87588941  0.57588066  0.02484140    -0.59270
N273        N  0.78503982  0.56231036  0.98410173    -0.06830
N274        N  0.77270236  0.58751053  0.97346455    -0.61400
N275        N  0.78490123  0.56267713  0.01414315    -0.06430
N276        N  0.77247481  0.58821992  0.02395509    -0.59250
N277        N  0.85394185  0.55853269  0.98438283    -0.06110
N278        N  0.87620028  0.57568814  0.97387395    -0.61750
C279        C  0.88973353  0.58608788  0.99939200     0.95020
C280        C  0.76464311  0.60356058  0.99840301     0.94800
N281        N  0.78362010  0.48015182  0.93097093    -0.07340
N282        N  0.77151936  0.47103008  0.90493162    -0.59850
N283        N  0.85303271  0.50868891  0.93404230    -0.05460
N284        N  0.87492678  0.51897824  0.91624643    -0.61100
N285        N  0.85243324  0.47885297  0.93371447    -0.07370
N286        N  0.87393988  0.46810338  0.91569309    -0.60120
N287        N  0.78390738  0.51015218  0.93207917    -0.05100
N288        N  0.77159854  0.52141218  0.90719632    -0.61190
Mn289      Mn  0.81856737  0.53511972  0.95846234     1.18440
C290        C  0.76373522  0.49698276  0.89031462     0.97110
C291        C  0.88783711  0.49341262  0.90517713     0.97770
N292        N  0.78392884  0.51056242  0.06728950    -0.07390
N293        N  0.77173989  0.52050549  0.09301237    -0.63700
N294        N  0.85227127  0.47919386  0.06412662    -0.06190
N295        N  0.87389027  0.46815740  0.08172748    -0.64370
N296        N  0.85279763  0.50902176  0.06433331    -0.06890
N297        N  0.87480914  0.51904972  0.08202789    -0.63960
N298        N  0.78315378  0.48058879  0.06658747    -0.05790
N299        N  0.77016939  0.47012197  0.09157038    -0.64650
Mn300      Mn  0.81833902  0.53554398  0.04025501     1.10660
C301        C  0.76285991  0.49509936  0.10798432     0.98330
C302        C  0.88782030  0.49330292  0.09250117     0.98400
N303        N  0.85125222  0.42914484  0.98397740    -0.06900
N304        N  0.87302534  0.41142450  0.97344282    -0.62280
N305        N  0.78186201  0.42893911  0.01418255    -0.06220
N306        N  0.76848351  0.40460763  0.02544671    -0.59010
N307        N  0.78238877  0.42748020  0.98415593    -0.07530
N308        N  0.76983875  0.40164696  0.97506409    -0.61840
N309        N  0.85124249  0.42930510  0.01386183    -0.06520
N310        N  0.87305133  0.41163022  0.02440457    -0.59030
Mn311      Mn  0.81690050  0.45356802  0.95790418     1.20190
Mn312      Mn  0.81670382  0.45429066  0.03984530     1.10090
Cl313      Cl  0.81642479  0.49464041  0.99909281    -0.87000
C314        C  0.88647329  0.40087004  0.99890417     0.95330
C315        C  0.76111799  0.38752027  0.00107902     0.95130
N316        N  0.01956955  0.42794790  0.84666349    -0.07150
N317        N  0.02972306  0.41036099  0.86868768    -0.59270
N318        N  0.99053682  0.42616480  0.77742440    -0.06830
N319        N  0.98055726  0.40117000  0.76402281    -0.61400
N320        N  0.02054593  0.42641556  0.77747710    -0.06430
N321        N  0.03104223  0.40179529  0.76393777    -0.59250
N322        N  0.98971624  0.42826369  0.84647261    -0.06110
N323        N  0.97878758  0.41088025  0.86834565    -0.61750
C324        C  0.00402838  0.40011684  0.88203763     0.95020
C325        C  0.00599898  0.38619449  0.75531137     0.94800
N326        N  0.93829980  0.50876447  0.77759740    -0.07340
N327        N  0.91268079  0.51865915  0.76532648    -0.59850
N328        N  0.93983885  0.47845712  0.84634982    -0.05460
N329        N  0.92187030  0.46790168  0.86800271    -0.61100
N330        N  0.94002838  0.50830974  0.84656244    -0.07370
N331        N  0.92223278  0.51879083  0.86837012    -0.60120
N332        N  0.93878531  0.47873759  0.77720596    -0.05100
N333        N  0.91377684  0.46821020  0.76446452    -0.61190
Mn334      Mn  0.96446161  0.45263613  0.81143417     1.18440
C335        C  0.89755297  0.49315225  0.75708909     0.97110
C336        C  0.91126913  0.49332900  0.88160012     0.97770
N337        N  0.07357419  0.47763218  0.77871784    -0.07390
N338        N  0.09927895  0.46784104  0.76642649    -0.63700
N339        N  0.07013123  0.50706247  0.84782238    -0.06190
N340        N  0.08789562  0.51744773  0.86959979    -0.64370
N341        N  0.07007751  0.47723869  0.84762115    -0.06890
N342        N  0.08780059  0.46653705  0.86928141    -0.63960
N343        N  0.07302170  0.50760395  0.77868565    -0.05790
N344        N  0.09807040  0.51828718  0.76609270    -0.64650
Mn345      Mn  0.04617099  0.45197175  0.81218690     1.10660
C346        C  0.11432776  0.49341249  0.75823710     0.98330
C347        C  0.09850276  0.49190547  0.88285057     0.98400
N348        N  0.99067227  0.55783397  0.84742197    -0.06900
N349        N  0.98019307  0.57565994  0.86916976    -0.62280
N350        N  0.02174365  0.55983818  0.77872917    -0.06220
N351        N  0.03326923  0.58485892  0.76689253    -0.59010
N352        N  0.99173140  0.56112761  0.77862999    -0.07530
N353        N  0.98282326  0.58737855  0.76694761    -0.61840
N354        N  0.02052884  0.55735730  0.84768153    -0.06520
N355        N  0.03111594  0.57486062  0.86958965    -0.59030
Mn356      Mn  0.96487079  0.53432019  0.81203996     1.20190
Mn357      Mn  0.04649437  0.53311052  0.81283002     1.10090
Cl358      Cl  0.00547561  0.49302893  0.81139097    -0.87000
C359        C  0.00568990  0.58587271  0.88284903     0.95330
C360        C  0.00895229  0.60196388  0.75959663     0.95130
N361        N  0.15629768  0.42576825  0.01313040    -0.07150
N362        N  0.13423237  0.40828370  0.02346036    -0.59270
N363        N  0.22577754  0.42352212  0.98349864    -0.06830
N364        N  0.23859845  0.39878239  0.97247814    -0.61400
N365        N  0.22508177  0.42226946  0.01350150    -0.06430
N366        N  0.23710368  0.39634029  0.02291337    -0.59250
N367        N  0.15655224  0.42599243  0.98325154    -0.06110
N368        N  0.13459732  0.40861125  0.97249471    -0.61750
C369        C  0.12083647  0.39795899  0.99787211     0.95020
C370        C  0.24583040  0.38191317  0.99712102     0.94800
N371        N  0.22697633  0.50585372  0.93178668    -0.07340
N372        N  0.24057175  0.51601120  0.90692474    -0.59850
N373        N  0.15759270  0.47650907  0.93372887    -0.05460
N374        N  0.13551097  0.46617855  0.91632641    -0.61100
N375        N  0.15788303  0.50635209  0.93378034    -0.07370
N376        N  0.13595684  0.51708988  0.91640705    -0.60120
N377        N  0.22665702  0.47586277  0.93170573    -0.05100
N378        N  0.24009401  0.46555108  0.90684954    -0.61190
Mn379      Mn  0.19206737  0.45022739  0.95779778     1.18440
C380        C  0.24908661  0.49073398  0.89159341     0.97110
C381        C  0.12217556  0.49174691  0.90591266     0.97770
N382        N  0.22539133  0.47430343  0.06612668    -0.07390
N383        N  0.23857058  0.46371721  0.09095010    -0.63700
N384        N  0.15669833  0.50519846  0.06354847    -0.06190
N385        N  0.13492191  0.51592209  0.08118934    -0.64370
N386        N  0.15642113  0.47535245  0.06350467    -0.06890
N387        N  0.13441203  0.46501957  0.08111679    -0.63960
N388        N  0.22568120  0.50429717  0.06635546    -0.05790
N389        N  0.23911127  0.51419884  0.09131955    -0.64650
Mn390      Mn  0.19123107  0.44914533  0.03938059     1.10660
C391        C  0.24748356  0.48877075  0.10641061     0.98330
C392        C  0.12116385  0.49059905  0.09174089     0.98400
N393        N  0.15802753  0.55618919  0.98401916    -0.06900
N394        N  0.13674581  0.57444108  0.97340022    -0.62280
N395        N  0.22678611  0.55693273  0.01475711    -0.06220
N396        N  0.23973399  0.58163117  0.02577343    -0.59010
N397        N  0.22693725  0.55778044  0.98472807    -0.07530
N398        N  0.23985806  0.58324490  0.97529354    -0.61840
N399        N  0.15768748  0.55590426  0.01390625    -0.06520
N400        N  0.13613848  0.57400192  0.02435431    -0.59030
Mn401      Mn  0.19291800  0.53181185  0.95826518     1.20190
Mn402      Mn  0.19211049  0.53081608  0.03991277     1.10090
Cl403      Cl  0.19279147  0.49050364  0.99884285    -0.87000
C404        C  0.12321071  0.58517565  0.99881886     0.95330
C405        C  0.24792594  0.59799509  0.00110047     0.95130
N406        N  0.02048494  0.55648780  0.15047034    -0.07150
N407        N  0.03142439  0.57398078  0.12869093    -0.59270
N408        N  0.99059918  0.56009508  0.21935284    -0.06830
N409        N  0.98146407  0.58591210  0.23186092    -0.61400
N410        N  0.02054914  0.55874723  0.21961067    -0.06430
N411        N  0.03184663  0.58323859  0.23259411    -0.59250
N412        N  0.99064504  0.55694003  0.15041374    -0.06110
N413        N  0.98048897  0.57475252  0.12856301    -0.61750
C414        C  0.00619930  0.58496220  0.11516442     0.95020
C415        C  0.00746673  0.60018575  0.24023595     0.94800
N416        N  0.93738944  0.47796881  0.21996425    -0.07340
N417        N  0.91177527  0.46831657  0.23243934    -0.59850
N418        N  0.94005670  0.50745847  0.15090078    -0.05460
N419        N  0.92242022  0.51816343  0.12917106    -0.61100
N420        N  0.93966559  0.47759816  0.15098941    -0.07370
N421        N  0.92170246  0.46727754  0.12929336    -0.60120
N422        N  0.93794936  0.50799366  0.21984934    -0.05100
N423        N  0.91282278  0.51873956  0.23230738    -0.61190
Mn424      Mn  0.96449867  0.53339254  0.18557474     1.18440
C425        C  0.89656621  0.49391886  0.24020202     0.97110
C426        C  0.91134577  0.49285826  0.11582933     0.97770
N427        N  0.07158743  0.50699721  0.21996428    -0.07390
N428        N  0.09614438  0.51802603  0.23306142    -0.63700
N429        N  0.06968821  0.47633374  0.15084556    -0.06190
N430        N  0.08716354  0.46554402  0.12895764    -0.64370
N431        N  0.06984673  0.50615652  0.15067170    -0.06890
N432        N  0.08744074  0.51646075  0.12864059    -0.63960
N433        N  0.07248303  0.47705049  0.21984911    -0.05790
N434        N  0.09807039  0.46760043  0.23255604    -0.64650
Mn435      Mn  0.04578250  0.53225535  0.18554781     1.10660
C436        C  0.11256487  0.49339254  0.24111402     0.98330
C437        C  0.09783714  0.49085801  0.11525264     0.98400
N438        N  0.98947542  0.42702268  0.15126770    -0.06900
N439        N  0.97886293  0.40952495  0.12935645    -0.62280
N440        N  0.01952495  0.42573692  0.22066584    -0.06220
N441        N  0.03036900  0.40106509  0.23368019    -0.59010
N442        N  0.98951717  0.42473398  0.22018094    -0.07530
N443        N  0.98001155  0.39892919  0.23248817    -0.61840
N444        N  0.01934489  0.42673113  0.15136429    -0.06520
N445        N  0.02978360  0.40902208  0.12947335    -0.59030
Mn446      Mn  0.96366681  0.45150166  0.18606021     1.20190
Mn447      Mn  0.04548879  0.45114807  0.18612034     1.10090
Cl448      Cl  0.00481519  0.49205220  0.18652113    -0.87000
C449        C  0.00426569  0.39866558  0.11590935     0.95330
C450        C  0.00576092  0.38428824  0.24099009     0.95130
N451        N  0.93833083  0.34225260  0.01335686    -0.07150
N452        N  0.92073307  0.36403511  0.02411832    -0.59270
N453        N  0.93483233  0.27318422  0.98313435    -0.06830
N454        N  0.90983254  0.26002539  0.97300409    -0.61400
N455        N  0.93481608  0.27329417  0.01312417    -0.06430
N456        N  0.90979287  0.26027229  0.02351751    -0.59250
N457        N  0.93813679  0.34227174  0.98349238    -0.06110
N458        N  0.92043015  0.36411722  0.97314760    -0.61750
C459        C  0.90997189  0.37754911  0.99874978     0.95020
C460        C  0.89435793  0.25170427  0.99836212     0.94800
N461        N  0.01694160  0.27221910  0.93041064    -0.07340
N462        N  0.02668346  0.25919134  0.90508765    -0.59850
N463        N  0.98816409  0.34155346  0.93344568    -0.05460
N464        N  0.97795016  0.36366676  0.91600100    -0.61100
N465        N  0.01801752  0.34109036  0.93334188    -0.07370
N466        N  0.02888418  0.36287129  0.91583845    -0.60120
N467        N  0.98693463  0.27256427  0.93090873    -0.05100
N468        N  0.97619457  0.25964557  0.90605729    -0.61190
Mn469      Mn  0.96174709  0.30697455  0.95745540     1.18440
C470        C  0.00110147  0.25104461  0.89013054     0.97110
C471        C  0.00362498  0.37679407  0.90542938     0.97770
N472        N  0.98700626  0.27188995  0.06407962    -0.07390
N473        N  0.97566347  0.25895719  0.08860822    -0.63700
N474        N  0.01846599  0.34049295  0.06321862    -0.06190
N475        N  0.02930847  0.36181348  0.08131621    -0.64370
N476        N  0.98860367  0.34102209  0.06314717    -0.06890
N477        N  0.97839812  0.36271482  0.08119108    -0.63960
N478        N  0.01699619  0.27167491  0.06515383    -0.05790
N479        N  0.02606440  0.25897290  0.09086713    -0.64650
Mn480      Mn  0.96200612  0.30677264  0.03866022     1.10660
C481        C  0.00001759  0.25101870  0.10535133     0.98330
C482        C  0.00403819  0.37554575  0.09213534     0.98400
N483        N  0.06829822  0.33998176  0.98292910    -0.06900
N484        N  0.08622488  0.36160140  0.97235234    -0.62280
N485        N  0.06954176  0.27079504  0.01246421    -0.06220
N486        N  0.09439240  0.25699786  0.02220663    -0.59010
N487        N  0.06915109  0.27093841  0.98242894    -0.07530
N488        N  0.09361593  0.25721341  0.97170916    -0.61840
N489        N  0.06843293  0.33984305  0.01281548    -0.06520
N490        N  0.08643095  0.36138393  0.02331633    -0.59030
Mn491      Mn  0.04339251  0.30563767  0.95698601     1.20190
Mn492      Mn  0.04373054  0.30524390  0.03876324     1.10090
Cl493      Cl  0.00276496  0.30512265  0.99796787    -0.87000
C494        C  0.09714704  0.37480620  0.99781871     0.95330
C495        C  0.10920482  0.24823213  0.99659302     0.95130
N496        N  0.94168132  0.64444871  0.98465973    -0.07150
N497        N  0.92390809  0.62280416  0.97403106    -0.59270
N498        N  0.93956805  0.71318123  0.01528079    -0.06830
N499        N  0.91478059  0.72627849  0.02608579    -0.61400
N500        N  0.93921755  0.71346429  0.98529661    -0.06430
N501        N  0.91415210  0.72680412  0.97557779    -0.59250
N502        N  0.94190241  0.64417468  0.01450870    -0.06110
N503        N  0.92422547  0.62233641  0.02500776    -0.61750
C504        C  0.91342320  0.60914691  0.99946690     0.95020
C505        C  0.89906609  0.73503129  0.00120183     0.94800
N506        N  0.02198089  0.71275502  0.06728864    -0.07340
N507        N  0.03115499  0.72471187  0.09336900    -0.59850
N508        N  0.99213160  0.64409574  0.06398128    -0.05460
N509        N  0.98135952  0.62214959  0.08132710    -0.61100
N510        N  0.02198742  0.64401828  0.06416107    -0.07370
N511        N  0.03228866  0.62196179  0.08165377    -0.60120
N512        N  0.99197697  0.71311883  0.06610813    -0.05100
N513        N  0.98078948  0.72576871  0.09085616    -0.61190
Mn514      Mn  0.96623778  0.67902695  0.04019099     1.18440
C515        C  0.00518035  0.73288877  0.10790881     0.97110
C516        C  0.00665230  0.60849461  0.09195080     0.97770
N517        N  0.99098585  0.71388360  0.93295045    -0.07390
N518        N  0.98010267  0.72735898  0.90848975    -0.63700
N519        N  0.02104584  0.64453448  0.93438000    -0.06190
N520        N  0.03142668  0.62263995  0.91670349    -0.64370
N521        N  0.99119694  0.64474972  0.93447097    -0.06890
N522        N  0.98049067  0.62296233  0.91688733    -0.63960
N523        N  0.02096441  0.71348700  0.93194177    -0.05790
N524        N  0.03054952  0.72650448  0.90652822    -0.64650
Mn525      Mn  0.96554708  0.67958865  0.95908722     1.10660
C526        C  0.00487853  0.73545589  0.89213266     0.98330
C527        C  0.00585528  0.60933008  0.90619451     0.98400
N528        N  0.07190211  0.64426259  0.01393736    -0.06900
N529        N  0.08958069  0.62241919  0.02433298    -0.62280
N530        N  0.07311476  0.71360027  0.98392101    -0.06220
N531        N  0.09792394  0.72583162  0.97242083    -0.59010
N532        N  0.07490025  0.71282705  0.01393481    -0.07530
N533        N  0.10150132  0.72390937  0.02271817    -0.61840
N534        N  0.07169357  0.64433517  0.98404337    -0.06520
N535        N  0.08932137  0.62248419  0.97337929    -0.59030
Mn536      Mn  0.04805742  0.67899474  0.04021997     1.20190
Mn537      Mn  0.04698133  0.67938989  0.95832523     1.10090
Cl538      Cl  0.00681831  0.68036695  0.99948959    -0.87000
C539        C  0.10008868  0.60896777  0.99880133     0.95330
C540        C  0.11571743  0.73201170  0.99655181     0.95130
N541        N  0.49211089  0.84143819  0.93166565    -0.07150
N542        N  0.48138145  0.86324406  0.91410473    -0.59270
N543        N  0.52299703  0.77280614  0.92862189    -0.06830
N544        N  0.53374035  0.76000616  0.90364886    -0.61400
N545        N  0.49301706  0.77248604  0.92824545    -0.06430
N546        N  0.48329288  0.75951256  0.90291540    -0.59250
N547        N  0.52196938  0.84182296  0.93179402    -0.06110
N548        N  0.53231093  0.86391177  0.91433278    -0.61750
C549        C  0.50673679  0.87712427  0.90369029     0.95020
C550        C  0.50890457  0.75150706  0.88770790     0.94800
N551        N  0.57481139  0.77229540  0.01105942    -0.07340
N552        N  0.60002241  0.75924407  0.02087792    -0.59850
N553        N  0.57194683  0.84163654  0.98199153    -0.05460
N554        N  0.58950956  0.86368714  0.97169784    -0.61100
N555        N  0.57190564  0.84126295  0.01187932    -0.07370
N556        N  0.58941318  0.86308343  0.02265559    -0.60120
N557        N  0.57451556  0.77258280  0.98102836    -0.05100
N558        N  0.59937142  0.75958463  0.97034661    -0.61190
Mn559      Mn  0.54812614  0.80682820  0.95562262     1.18440
C560        C  0.61510724  0.75101097  0.99531930     0.97110
C561        C  0.60001410  0.87692286  0.99732765     0.97770
N562        N  0.44110197  0.77083125  0.98066501    -0.07390
N563        N  0.41669289  0.75730090  0.96978805    -0.63700
N564        N  0.44173063  0.83968417  0.01162998    -0.06190
N565        N  0.42367976  0.86110206  0.02240777    -0.64370
N566        N  0.44188224  0.84004011  0.98174463    -0.06890
N567        N  0.42396280  0.86174342  0.97144918    -0.63960
N568        N  0.44026830  0.77075981  0.01068200    -0.05790
N569        N  0.41502033  0.75746273  0.02027537    -0.64650
Mn570      Mn  0.46673891  0.80578717  0.95533650     1.10660
C571        C  0.40051438  0.74880051  0.99457623     0.98330
C572        C  0.41298475  0.87473206  0.99706425     0.98400
N573        N  0.52155349  0.83998110  0.06187912    -0.06900
N574        N  0.53169970  0.86178277  0.07978038    -0.62280
N575        N  0.49238717  0.77043614  0.06276894    -0.06220
N576        N  0.48185199  0.75638097  0.08712616    -0.59010
N577        N  0.52238606  0.77099800  0.06338937    -0.07530
N578        N  0.53230902  0.75750195  0.08837374    -0.61840
N579        N  0.49168871  0.83959011  0.06174250    -0.06520
N580        N  0.48077256  0.86113521  0.07952953    -0.59030
Mn581      Mn  0.54799995  0.80572145  0.03737991     1.20190
Mn582      Mn  0.46625670  0.80470523  0.03701592     1.10090
Cl583      Cl  0.50729206  0.80509945  0.99632948    -0.87000
C584        C  0.50599229  0.87482497  0.09039139     0.95330
C585        C  0.50685889  0.74807066  0.10295451     0.95130
N586        N  0.57224234  0.00921971  0.84673542    -0.07150
N587        N  0.58978578  0.01973474  0.86861759    -0.59270
N588        N  0.57427527  0.97962610  0.77716132    -0.06830
N589        N  0.59898616  0.96876501  0.76413372    -0.61400
N590        N  0.57545158  0.00959738  0.77795331    -0.06430
N591        N  0.60134530  0.01912204  0.76584486    -0.59250
N592        N  0.57232094  0.97937017  0.84649626    -0.06110
N593        N  0.59001890  0.96883839  0.86831236    -0.61750
C594        C  0.60050561  0.99431325  0.88194560     0.95020
C595        C  0.61581434  0.99345051  0.75696339     0.94800
N596        N  0.49238806  0.92870595  0.77581145    -0.07340
N597        N  0.48133714  0.90420759  0.76264536    -0.59850
N598        N  0.52191220  0.92941521  0.84559288    -0.05460
N599        N  0.53226181  0.91158888  0.86733113    -0.61100
N600        N  0.49205595  0.92929427  0.84520698    -0.07370
N601        N  0.48133373  0.91136115  0.86678599    -0.60120
N602        N  0.52233802  0.92718814  0.77675711    -0.05100
N603        N  0.53162035  0.90120106  0.76465495    -0.61190
Mn604      Mn  0.54803308  0.95366028  0.81110422     1.18440
C605        C  0.50576404  0.88698313  0.75578842     0.97110
C606        C  0.50670374  0.90071380  0.88042704     0.97770
N607        N  0.52326230  0.06189404  0.77790573    -0.07390
N608        N  0.53389876  0.08672100  0.76480543    -0.63700
N609        N  0.49248730  0.05902596  0.84687729    -0.06190
N610        N  0.48156194  0.07635830  0.86875751    -0.64370
N611        N  0.52234520  0.05928160  0.84705148    -0.06890
N612        N  0.53249049  0.07686366  0.86914462    -0.63960
N613        N  0.49325599  0.06231168  0.77792900    -0.05790
N614        N  0.48339992  0.08749901  0.76487813    -0.64650
Mn615      Mn  0.54861707  0.03532342  0.81198482     1.10660
C616        C  0.50889493  0.10248512  0.75638028     0.98330
C617        C  0.50674793  0.08709782  0.88250885     0.98400
N618        N  0.44227539  0.97931355  0.84547876    -0.06900
N619        N  0.42442154  0.96818770  0.86687845    -0.62280
N620        N  0.44088885  0.01073102  0.77687203    -0.06220
N621        N  0.41617305  0.02169508  0.76394338    -0.59010
N622        N  0.44024145  0.98076569  0.77652945    -0.07530
N623        N  0.41489215  0.97129176  0.76344632    -0.61840
N624        N  0.44217895  0.00914652  0.84606036    -0.06520
N625        N  0.42415540  0.01908189  0.86795420    -0.59030
Mn626      Mn  0.46654748  0.95427515  0.81029246     1.20190
Mn627      Mn  0.46695467  0.03558840  0.81155473     1.10090
Cl628      Cl  0.50755111  0.99471637  0.81055609    -0.87000
C629        C  0.41349429  0.99323865  0.88078111     0.95330
C630        C  0.40002275  0.99704349  0.75542105     0.95130
N631        N  0.51958619  0.14592590  0.93451449    -0.07150
N632        N  0.53095102  0.12450652  0.91684820    -0.59270
N633        N  0.48717719  0.21414867  0.93295986    -0.06830
N634        N  0.47623847  0.22718617  0.90825869    -0.61400
N635        N  0.51717061  0.21483815  0.93247004    -0.06430
N636        N  0.52671482  0.22824890  0.90724642    -0.59250
N637        N  0.48974876  0.14509915  0.93429882    -0.06110
N638        N  0.48003369  0.12303676  0.91650326    -0.61750
C639        C  0.50598541  0.11036284  0.90601532     0.95020
C640        C  0.50099868  0.23627199  0.89239719     0.94800
N641        N  0.43497521  0.21139727  0.01495956    -0.07340
N642        N  0.40956537  0.22332281  0.02567011    -0.59850
N643        N  0.43964928  0.14299501  0.98401915    -0.05460
N644        N  0.42249375  0.12103953  0.97304836    -0.61100
N645        N  0.43951879  0.14256183  0.01388499    -0.07370
N646        N  0.42221038  0.12026957  0.02402434    -0.60120
N647        N  0.43473403  0.21171009  0.98495116    -0.05100
N648        N  0.40905142  0.22382096  0.97514915    -0.61190
Mn649      Mn  0.46259347  0.17893776  0.95879358     1.18440
C650        C  0.39348710  0.23119551  0.00074212     0.97110
C651        C  0.41202872  0.10700319  0.99826492     0.97770
N652        N  0.56866378  0.21627698  0.98504947    -0.07390
N653        N  0.59304581  0.22973095  0.97395285    -0.63700
N654        N  0.56917341  0.14655526  0.01467371    -0.06190
N655        N  0.58702355  0.12487064  0.02508890    -0.64370
N656        N  0.56937013  0.14692531  0.98477773    -0.06890
N657        N  0.58741675  0.12541439  0.97413048    -0.63960
N658        N  0.57006205  0.21534095  0.01506939    -0.05790
N659        N  0.59593998  0.22767152  0.02431075    -0.64650
Mn660      Mn  0.54397717  0.18142463  0.95899541     1.10660
C661        C  0.61012085  0.23666296  0.99841521     0.98330
C662        C  0.59804623  0.11182388  0.99956219     0.98400
N663        N  0.48901898  0.14374300  0.06437793    -0.06900
N664        N  0.47862755  0.12171999  0.08189709    -0.62280
N665        N  0.51690445  0.21332556  0.06777048    -0.06220
N666        N  0.52570803  0.22529435  0.09394939    -0.59010
N667        N  0.48690277  0.21282626  0.06650670    -0.07530
N668        N  0.47530931  0.22488952  0.09139426    -0.61840
N669        N  0.51887047  0.14447050  0.06489212    -0.06520
N670        N  0.52951400  0.12288254  0.08283659    -0.59030
Mn671      Mn  0.46245307  0.17801460  0.04013345     1.20190
Mn672      Mn  0.54410311  0.18040235  0.04094699     1.10090
Cl673      Cl  0.50328505  0.18040213  0.99973450    -0.87000
C674        C  0.50410916  0.10882871  0.09305298     0.95330
C675        C  0.49952439  0.23251023  0.10853175     0.95130
N676        N  0.48980243  0.92578000  0.14941493    -0.07150
N677        N  0.47974573  0.90826080  0.12726896    -0.59270
N678        N  0.51895948  0.92311548  0.21893081    -0.06830
N679        N  0.52950993  0.89829228  0.23206659    -0.61400
N680        N  0.48894248  0.92238471  0.21837333    -0.06430
N681        N  0.47906855  0.89692449  0.23099669    -0.59250
N682        N  0.51965951  0.92604455  0.14980839    -0.06110
N683        N  0.53066441  0.90872653  0.12790249    -0.61750
C684        C  0.50549137  0.89802250  0.11400316     0.95020
C685        C  0.50450921  0.88209084  0.23985488     0.94800
N686        N  0.56936603  0.00579151  0.22064815    -0.07340
N687        N  0.59385248  0.01710368  0.23359849    -0.59850
N688        N  0.56892655  0.97666446  0.15082677    -0.05460
N689        N  0.58676464  0.96669060  0.12884042    -0.61100
N690        N  0.56848708  0.00649516  0.15127893    -0.07370
N691        N  0.58602902  0.01758883  0.12957837    -0.60120
N692        N  0.57117564  0.97586808  0.21964761    -0.05100
N693        N  0.59740783  0.96687102  0.23137693    -0.61190
Mn694      Mn  0.54494348  0.95009959  0.18526777     1.18440
C695        C  0.61142032  0.99287193  0.24010380     0.97110
C696        C  0.59703478  0.99247926  0.11573388     0.97770
N697        N  0.43607426  0.97429152  0.21840844    -0.07390
N698        N  0.41115549  0.96364804  0.23145434    -0.63700
N699        N  0.43899051  0.00525121  0.14975463    -0.06190
N700        N  0.42146743  0.01595617  0.12793119    -0.64370
N701        N  0.43922143  0.97539717  0.14937857    -0.06890
N702        N  0.42183108  0.96506563  0.12725205    -0.63960
N703        N  0.43578585  0.00429812  0.21875025    -0.05790
N704        N  0.41071601  0.01412482  0.23208346    -0.64650
Mn705      Mn  0.46316796  0.94913270  0.18431500     1.10660
C706        C  0.39559125  0.98866721  0.24032814     0.98330
C707        C  0.41115612  0.99063557  0.11403602     0.98400
N708        N  0.51825177  0.05617175  0.15134736    -0.06900
N709        N  0.52912383  0.07435452  0.13005273    -0.62280
N710        N  0.48715023  0.05733492  0.22002901    -0.06220
N711        N  0.47687477  0.08227676  0.23332846    -0.59010
N712        N  0.51712369  0.05702371  0.22063998    -0.07530
N713        N  0.52733301  0.08153071  0.23456195    -0.61840
N714        N  0.48840986  0.05599854  0.15086235    -0.06520
N715        N  0.47821444  0.07405382  0.12918900    -0.59030
Mn716      Mn  0.54348084  0.03152033  0.18639648     1.20190
Mn717      Mn  0.46225810  0.03098801  0.18525622     1.10090
Cl718      Cl  0.50339765  0.99036120  0.18639824    -0.87000
C719        C  0.50387919  0.08513360  0.11633971     0.95330
C720        C  0.50211209  0.09716266  0.24269582     0.95130
N721        N  0.35413755  0.92620806  0.98205808    -0.07150
N722        N  0.37615931  0.90871667  0.97164082    -0.59270
N723        N  0.28443940  0.92406520  0.01161714    -0.06830
N724        N  0.27175129  0.89914775  0.02242717    -0.61400
N725        N  0.28533607  0.92302033  0.98158545    -0.06430
N726        N  0.27357642  0.89703711  0.97198597    -0.59250
N727        N  0.35366547  0.92598538  0.01194897    -0.06110
N728        N  0.37544512  0.90832188  0.02259709    -0.61750
C729        C  0.38931712  0.89793746  0.99716965     0.95020
C730        C  0.26506836  0.88229861  0.99768647     0.94800
N731        N  0.28342241  0.00601697  0.06292905    -0.07340
N732        N  0.26981180  0.01706673  0.08725122    -0.59850
N733        N  0.35285823  0.97596955  0.06198163    -0.05460
N734        N  0.37456399  0.96539470  0.07970318    -0.61100
N735        N  0.35274544  0.00580176  0.06207387    -0.07370
N736        N  0.37443929  0.01630084  0.07991166    -0.60120
N737        N  0.28390961  0.97606571  0.06408308    -0.05100
N738        N  0.27095115  0.96666997  0.08963192    -0.61190
Mn739      Mn  0.31827355  0.95022027  0.03765443     1.18440
C740        C  0.26185811  0.99246796  0.10381375     0.97110
C741        C  0.38789355  0.99080959  0.09050435     0.97770
N742        N  0.28539160  0.97559973  0.92915599    -0.07390
N743        N  0.27293043  0.96524013  0.90388799    -0.63700
N744        N  0.35394122  0.00640388  0.93206309    -0.06190
N745        N  0.37576602  0.01749734  0.91471293    -0.64370
N746        N  0.35440914  0.97655676  0.93185938    -0.06890
N747        N  0.37662724  0.96660809  0.91424958    -0.63960
N748        N  0.28508935  0.00560419  0.92912571    -0.05790
N749        N  0.27240661  0.01565943  0.90381943    -0.64650
Mn750      Mn  0.31940719  0.95004012  0.95583766     1.10660
C751        C  0.26462054  0.99030933  0.88820577     0.98330
C752        C  0.38978020  0.99243624  0.90396768     0.98400
N753        N  0.35301228  0.05564897  0.01206519    -0.06900
N754        N  0.37487913  0.07294173  0.02299231    -0.62280
N755        N  0.28409676  0.05783235  0.98147721    -0.06220
N756        N  0.27065324  0.08262104  0.97120757    -0.59010
N757        N  0.28404377  0.05790648  0.01148190    -0.07530
N758        N  0.27059236  0.08273720  0.02171755    -0.61840
N759        N  0.35324359  0.05595463  0.98219888    -0.06520
N760        N  0.37535697  0.07347987  0.97201147    -0.59030
Mn761      Mn  0.31792672  0.03156172  0.03738233     1.20190
Mn762      Mn  0.31861500  0.03173374  0.95593002     1.10090
Cl763      Cl  0.31785569  0.99085486  0.99666775    -0.87000
C764        C  0.38867426  0.08366007  0.99774183     0.95330
C765        C  0.26201887  0.09802156  0.99647428     0.95130
N766        N  0.65578421  0.00886596  0.06443791    -0.07150
N767        N  0.63374279  0.01887581  0.08218478    -0.59270
N768        N  0.72514365  0.97939517  0.06693078    -0.06830
N769        N  0.73793218  0.96811574  0.09155001    -0.61400
N770        N  0.72456567  0.00933809  0.06838711    -0.06430
N771        N  0.73669440  0.01846406  0.09437913    -0.59250
N772        N  0.65608093  0.97902365  0.06388486    -0.06110
N773        N  0.63423724  0.96798233  0.08127103    -0.61750
C774        C  0.62044688  0.99311489  0.09227794     0.95020
C775        C  0.74514510  0.99249276  0.10866060     0.94800
N776        N  0.72747018  0.92796770  0.98468859    -0.07340
N777        N  0.74092403  0.90284747  0.97501220    -0.59850
N778        N  0.65772314  0.92944219  0.01326112    -0.05460
N779        N  0.63596393  0.91143709  0.02337690    -0.61100
N780        N  0.65841015  0.92944530  0.98338931    -0.07370
N781        N  0.63706285  0.91145768  0.97241878    -0.60120
N782        N  0.72687012  0.92832366  0.01470281    -0.05100
N783        N  0.74013775  0.90372974  0.02552990    -0.61190
Mn784      Mn  0.69180488  0.95387866  0.03988272     1.18440
C785        C  0.74915067  0.88798224  0.00068967     0.97110
C786        C  0.62320340  0.90060801  0.99765523     0.97770
N787        N  0.72532272  0.06244740  0.01645384    -0.07390
N788        N  0.73826788  0.08736141  0.02711754    -0.63700
N789        N  0.65674287  0.05981124  0.98512988    -0.06190
N790        N  0.63524657  0.07771856  0.97434778    -0.64370
N791        N  0.65627419  0.05967033  0.01501988    -0.06890
N792        N  0.63438833  0.07743406  0.02530309    -0.63960
N793        N  0.72570816  0.06282413  0.98642935    -0.05790
N794        N  0.73889518  0.08797930  0.97662020    -0.64650
Mn795      Mn  0.69092693  0.03540897  0.04139495     1.10660
C796        C  0.74702320  0.10313034  0.00210733     0.98330
C797        C  0.62142283  0.08831451  0.99967903     0.98400
N798        N  0.65895366  0.98005088  0.93404226    -0.06900
N799        N  0.63759474  0.96927625  0.91599464    -0.62280
N800        N  0.72760197  0.01129907  0.93406120    -0.06220
N801        N  0.74101543  0.02257676  0.90967966    -0.59010
N802        N  0.72790241  0.98130899  0.93301918    -0.07530
N803        N  0.74132683  0.97215474  0.90766900    -0.61840
N804        N  0.65838235  0.00990001  0.93445540    -0.06520
N805        N  0.63658802  0.02016193  0.91661255    -0.59030
Mn806      Mn  0.69366703  0.95440407  0.95844461     1.20190
Mn807      Mn  0.69246122  0.03619596  0.95974250     1.10090
Cl808      Cl  0.69287637  0.99499882  0.99987514    -0.87000
C809        C  0.62378238  0.99454491  0.90549467     0.95330
C810        C  0.74953946  0.99809909  0.89325561     0.95130
N811        N  0.02206217  0.84175550  0.56373483    -0.07150
N812        N  0.03252879  0.86378161  0.58115354    -0.59270
N813        N  0.99278804  0.77240781  0.56650922    -0.06830
N814        N  0.98256609  0.76011607  0.59190404    -0.61400
N815        N  0.02279978  0.77304370  0.56683328    -0.06430
N816        N  0.03300341  0.76143948  0.59262625    -0.59250
N817        N  0.99220649  0.84142479  0.56406128    -0.06110
N818        N  0.98160290  0.86326799  0.58169518    -0.61750
C819        C  0.00702970  0.87705867  0.59196125     0.95020
C820        C  0.00773768  0.75314400  0.60808809     0.94800
N821        N  0.94066076  0.77139621  0.48469902    -0.07340
N822        N  0.91590706  0.75839915  0.47393278    -0.59850
N823        N  0.94197969  0.84067124  0.51449619    -0.05460
N824        N  0.92412457  0.86228765  0.52512838    -0.61100
N825        N  0.94186526  0.84055547  0.48462295    -0.07370
N826        N  0.92384784  0.86211964  0.47415785    -0.60120
N827        N  0.93988988  0.77180165  0.51471093    -0.05100
N828        N  0.91427097  0.75932427  0.52445087    -0.61190
Mn829      Mn  0.96648168  0.80609724  0.54023747     1.18440
C830        C  0.89950112  0.75090585  0.49877826     0.97110
C831        C  0.91319069  0.87553829  0.49971220     0.97770
N832        N  0.07439254  0.77261415  0.51413473    -0.07390
N833        N  0.09927518  0.75979403  0.52484597    -0.63700
N834        N  0.07180003  0.84142082  0.48348535    -0.06190
N835        N  0.08907799  0.86344036  0.47273324    -0.64370
N836        N  0.07178275  0.84165430  0.51336432    -0.06890
N837        N  0.08905692  0.86383102  0.52371144    -0.63960
N838        N  0.07497053  0.77256548  0.48409402    -0.05790
N839        N  0.10047999  0.75990690  0.47433542    -0.64650
Mn840      Mn  0.04804640  0.80685232  0.53973373     1.10660
C841        C  0.11550653  0.75186729  0.49997335     0.98330
C842        C  0.09943672  0.87724841  0.49810592     0.98400
N843        N  0.99178302  0.84041435  0.43426506    -0.06900
N844        N  0.98077544  0.86196866  0.41660884    -0.62280
N845        N  0.02230429  0.77166910  0.43200611    -0.06220
N846        N  0.03191192  0.75845787  0.40670590    -0.59010
N847        N  0.99231853  0.77130011  0.43300075    -0.07530
N848        N  0.98145148  0.75756087  0.40869592    -0.61840
N849        N  0.02163498  0.84063693  0.43375519    -0.06520
N850        N  0.03170520  0.86240944  0.41573925    -0.59030
Mn851      Mn  0.96647820  0.80555777  0.45892044     1.20190
Mn852      Mn  0.04804957  0.80612999  0.45796585     1.10090
Cl853      Cl  0.00727375  0.80546783  0.49922567    -0.87000
C854        C  0.00594347  0.87554741  0.40545036     0.95330
C855        C  0.00623096  0.74934898  0.39243212     0.95130
N856        N  0.85193346  0.00573014  0.43406703    -0.07150
N857        N  0.87340288  0.01630824  0.41593386    -0.59270
N858        N  0.78299664  0.97478661  0.43443517    -0.06830
N859        N  0.76979493  0.96342207  0.41004278    -0.61400
N860        N  0.78298951  0.00477973  0.43310535    -0.06430
N861        N  0.77005494  0.01381657  0.40750276    -0.59250
N862        N  0.85227312  0.97587866  0.43447610    -0.06110
N863        N  0.87402502  0.96542473  0.41656968    -0.61750
C864        C  0.88705026  0.99092560  0.40538237     0.95020
C865        C  0.76180748  0.98781433  0.39326534     0.94800
N866        N  0.78502044  0.92456433  0.51711170    -0.07340
N867        N  0.77218424  0.89999973  0.52853535    -0.59850
N868        N  0.85376592  0.92656432  0.48546335    -0.05460
N869        N  0.87552682  0.90896505  0.47465689    -0.61100
N870        N  0.85425240  0.92690101  0.51534525    -0.07370
N871        N  0.87641966  0.90952511  0.52561088    -0.60120
N872        N  0.78488750  0.92325226  0.48711614    -0.05100
N873        N  0.77224820  0.89748799  0.47809223    -0.61190
Mn874      Mn  0.81807851  0.94986026  0.46008580     1.18440
C875        C  0.76404003  0.88318685  0.50412112     0.97110
C876        C  0.88952736  0.89872419  0.49995948     0.97770
N877        N  0.78337286  0.05824310  0.48469277    -0.07390
N878        N  0.76989626  0.08328119  0.47488039    -0.63700
N879        N  0.85281525  0.05642801  0.51348706    -0.06190
N880        N  0.87487778  0.07388823  0.52370637    -0.64370
N881        N  0.85242136  0.05634685  0.48360664    -0.06890
N882        N  0.87428011  0.07381696  0.47273148    -0.63960
N883        N  0.78368666  0.05795554  0.51471380    -0.05790
N884        N  0.77015205  0.08250572  0.52536716    -0.64650
Mn885      Mn  0.81722157  0.03161962  0.45852068     1.10660
C886        C  0.76135917  0.09823526  0.50044431     0.98330
C887        C  0.88811168  0.08434757  0.49806114     0.98400
N888        N  0.85462142  0.97762276  0.56484464    -0.06900
N889        N  0.87652138  0.96748076  0.58259676    -0.62280
N890        N  0.78518305  0.00711908  0.56751936    -0.06220
N891        N  0.77244682  0.01811662  0.59238221    -0.59010
N892        N  0.78573510  0.97717596  0.56864431    -0.07530
N893        N  0.77349445  0.96772691  0.59448101    -0.61840
N894        N  0.85430322  0.00745812  0.56450421    -0.06520
N895        N  0.87603514  0.01837320  0.58207127    -0.58550
Mn896      Mn  0.81950980  0.95127523  0.54171531     1.20190
Mn897      Mn  0.81859919  0.03248751  0.54023900     1.10090
Cl898      Cl  0.81768588  0.99130123  0.50014151    -0.87000
C899        C  0.88976184  0.99313993  0.59295878     0.95330
C900        C  0.76508135  0.99348453  0.60914732     0.95130
N901        N  0.15789274  0.92908098  0.51251184    -0.07150
N902        N  0.13615559  0.91144916  0.52327744    -0.59270
N903        N  0.22687428  0.92728416  0.48177809    -0.06830
N904        N  0.23989903  0.90258252  0.47091206    -0.61400
N905        N  0.22673476  0.92646999  0.51178281    -0.06430
N906        N  0.23934393  0.90089904  0.52138736    -0.59250
N907        N  0.15772733  0.92902413  0.48265055    -0.06110
N908        N  0.13585968  0.91136849  0.47229434    -0.61750
C909        C  0.12256507  0.90081530  0.49790324     0.95020
C910        C  0.24783094  0.88619356  0.49568234     0.94800
N911        N  0.22565633  0.00876733  0.42901180    -0.07340
N912        N  0.23773322  0.01860319  0.40329196    -0.59850
N913        N  0.15702370  0.97854579  0.43256881    -0.05460
N914        N  0.13517883  0.96757718  0.41524990    -0.61100
N915        N  0.15673816  0.00838653  0.43229578    -0.07370
N916        N  0.13465057  0.01848107  0.41474465    -0.60120
N917        N  0.22582521  0.97877678  0.42942823    -0.05100
N918        N  0.23798760  0.96819102  0.40406028    -0.61190
Mn919      Mn  0.19230845  0.95320461  0.45642204     1.18440
C920        C  0.24554489  0.99313141  0.38783782     0.97110
C921        C  0.12136525  0.99275070  0.40452745     0.97770
N922        N  0.22744386  0.97909213  0.56333501    -0.07390
N923        N  0.24107331  0.96853433  0.58784734    -0.63700
N924        N  0.15812074  0.00900010  0.56215887    -0.06190
N925        N  0.13632021  0.01949394  0.57992749    -0.64370
N926        N  0.15828962  0.97915693  0.56228398    -0.06890
N927        N  0.13658391  0.96858686  0.58011500    -0.63960
N928        N  0.22711143  0.00907922  0.56388696    -0.05790
N929        N  0.24032232  0.01898396  0.58903301    -0.64650
Mn930      Mn  0.19301379  0.95321390  0.53779353     1.10660
C931        C  0.24933356  0.99350640  0.60373064     0.98330
C932        C  0.12303918  0.99400407  0.59072695     0.98400
N933        N  0.15716118  0.05895375  0.48209624    -0.06900
N934        N  0.13533793  0.07671388  0.47176076    -0.62280
N935        N  0.22668652  0.06087929  0.51122991    -0.06220
N936        N  0.23977477  0.08571262  0.52170252    -0.59010
N937        N  0.22604898  0.06152699  0.48119326    -0.07530
N938        N  0.23844948  0.08707581  0.47121596    -0.61840
N939        N  0.15750949  0.05907985  0.51198634    -0.06520
N940        N  0.13589041  0.07693896  0.52271342    -0.59030
Mn941      Mn  0.19183019  0.03471899  0.45583302     1.20190
Mn942      Mn  0.19277538  0.03481506  0.53759134     1.10090
Cl943      Cl  0.19318702  0.99402484  0.49689864    -0.87000
C944        C  0.12220494  0.08755967  0.49735298     0.95330
C945        C  0.24730962  0.10192579  0.49667144     0.95130
N946        N  0.93980189  0.14292932  0.48318512    -0.07150
N947        N  0.92223775  0.12110169  0.47255081    -0.59270
N948        N  0.93558862  0.21167334  0.51305412    -0.06830
N949        N  0.90974563  0.22375523  0.52268342    -0.61400
N950        N  0.93643582  0.21191823  0.48305826    -0.06430
N951        N  0.91149598  0.22442486  0.47217541    -0.59250
N952        N  0.93975515  0.14287196  0.51304987    -0.06110
N953        N  0.92216328  0.12097618  0.52353065    -0.61750
C954        C  0.91165717  0.10754208  0.49799838     0.95020
C955        C  0.89488458  0.23178571  0.49693415     0.94800
N956        N  0.01813181  0.21373156  0.56519214    -0.07340
N957        N  0.02771056  0.22698431  0.59043444    -0.59850
N958        N  0.98994008  0.14420335  0.56290263    -0.05460
N959        N  0.97989563  0.12227658  0.58072188    -0.61100
N960        N  0.01980402  0.14485130  0.56282082    -0.07370
N961        N  0.03081632  0.12336602  0.58058143    -0.60120
N962        N  0.98811836  0.21309308  0.56489097    -0.05100
N963        N  0.97727654  0.22597006  0.58976481    -0.61190
Mn964      Mn  0.96309491  0.17836829  0.53879296     1.18440
C965        C  0.00201785  0.23481833  0.60560941     0.97110
C966        C  0.00564136  0.10943509  0.59134383     0.97770
N967        N  0.98779644  0.21308437  0.43147168    -0.07390
N968        N  0.97615488  0.22586643  0.40704465    -0.63700
N969        N  0.01942162  0.14436801  0.43271384    -0.06190
N970        N  0.03013244  0.12264366  0.41498402    -0.64370
N971        N  0.98957594  0.14388409  0.43307564    -0.06890
N972        N  0.97920753  0.12182086  0.41564369    -0.63960
N973        N  0.01774131  0.21324847  0.42991163    -0.05790
N974        N  0.02652087  0.22574308  0.40392686    -0.64650
Mn975      Mn  0.96327446  0.17832509  0.45753509     1.10660
C976        C  0.00029883  0.23367258  0.38981774     0.98330
C977        C  0.00475404  0.10871954  0.40473651     0.98400
N978        N  0.06987391  0.14584879  0.51250748    -0.06900
N979        N  0.08793854  0.12433352  0.52298946    -0.62280
N980        N  0.06998079  0.21487898  0.48230125    -0.06220
N981        N  0.09457061  0.22836224  0.47160338    -0.59010
N982        N  0.07053984  0.21481140  0.51235584    -0.07530
N983        N  0.09570576  0.22806001  0.52210293    -0.61840
N984        N  0.06974472  0.14576113  0.48260785    -0.06520
N985        N  0.08770472  0.12417315  0.47203296    -0.59030
Mn986      Mn  0.04491542  0.18027172  0.53854556     1.20190
Mn987      Mn  0.04457144  0.17999572  0.45659401     1.10090
Cl988      Cl  0.00398468  0.17991675  0.49789217    -0.87000
C989        C  0.09868948  0.11095738  0.49748000     0.95330
C990        C  0.11047137  0.23679040  0.49652250     0.95130
N991        N  0.01963269  0.92684687  0.34619954    -0.07150
N992        N  0.03055651  0.90949846  0.36803914    -0.59270
N993        N  0.98935442  0.92424000  0.27745778    -0.06830
N994        N  0.97968449  0.89884517  0.26456894    -0.61400
N995        N  0.01935912  0.92509020  0.27702882    -0.06430
N996        N  0.03013978  0.90057247  0.26357819    -0.59250
N997        N  0.98977022  0.92653570  0.34649356    -0.06110
N998        N  0.97962618  0.90892897  0.36858673    -0.61750
C999        C  0.00535352  0.89870660  0.38184735     0.95020
C1000       C  0.00531545  0.88432559  0.25562304     0.94800
N1001       N  0.93762334  0.00647159  0.27755106    -0.07340
N1002       N  0.91288502  0.01727148  0.26458698    -0.59850
N1003       N  0.93930304  0.97630310  0.34678041    -0.05460
N1004       N  0.92141198  0.96568282  0.36844672    -0.61100
N1005       N  0.93927276  0.00616375  0.34681256    -0.07370
N1006       N  0.92131981  0.01657281  0.36854371    -0.60120
N1007       N  0.93671793  0.97647265  0.27790414    -0.05100
N1008       N  0.91104040  0.96686912  0.26550879    -0.61190
Mn1009     Mn  0.96345592  0.95052157  0.31173738     1.18440
C1010       C  0.89638386  0.99251242  0.25692538     0.97110
C1011       C  0.91056617  0.99105810  0.38189338     0.97770
N1012       N  0.07159340  0.97658723  0.27699064    -0.07390
N1013       N  0.09646336  0.96621778  0.26370363    -0.63700
N1014       N  0.06939396  0.00668408  0.34609175    -0.06190
N1015       N  0.08699860  0.01750188  0.36776423    -0.64370
N1016       N  0.06959559  0.97685901  0.34618876    -0.06890
N1017       N  0.08741538  0.96658528  0.36800056    -0.63960
N1018       N  0.07176847  0.00653807  0.27704928    -0.05790
N1019       N  0.09681080  0.01666063  0.26380110    -0.64650
Mn1020     Mn  0.04525837  0.95104792  0.31120429     1.10660
C1021       C  0.11208480  0.99131047  0.25529402     0.98330
C1022       C  0.09785043  0.99223919  0.38130039     0.98400
N1023       N  0.98961667  0.05635561  0.34666486    -0.06900
N1024       N  0.97920220  0.07420711  0.36841959    -0.62280
N1025       N  0.01960433  0.05785780  0.27709233    -0.06220
N1026       N  0.03063279  0.08256906  0.26426794    -0.59010
N1027       N  0.98962927  0.05903089  0.27779772    -0.07530
N1028       N  0.98024593  0.08496885  0.26580484    -0.61840
N1029       N  0.01947634  0.05648978  0.34631294    -0.06520
N1030       N  0.03012860  0.07442377  0.36786442    -0.59030
Mn1031     Mn  0.96371518  0.03226057  0.31180775     1.20190
Mn1032     Mn  0.04522862  0.03211258  0.31122302     1.10090
Cl1033     Cl  0.00437742  0.99148366  0.31083374    -0.87000
C1034       C  0.00473782  0.08507906  0.38151361     0.95330
C1035       C  0.00608248  0.09950007  0.25734786     0.95130
N1036       N  0.99239312  0.92883246  0.65074124    -0.07150
N1037       N  0.98170277  0.91117981  0.62898469    -0.59270
N1038       N  0.02289145  0.92638552  0.71966647    -0.06830
N1039       N  0.03298820  0.90150861  0.73314465    -0.61400
N1040       N  0.99290685  0.92657861  0.71988366    -0.06430
N1041       N  0.98250053  0.90194127  0.73354633    -0.59250
N1042       N  0.02225123  0.92875410  0.65054106    -0.06110
N1043       N  0.03263787  0.91111332  0.62860881    -0.61750
C1044       C  0.00709010  0.90053464  0.61531627     0.95020
C1045       C  0.00760016  0.88647821  0.74211966     0.94800
N1046       N  0.07445518  0.00891435  0.71903816    -0.07340
N1047       N  0.09929660  0.01967425  0.73193140    -0.59850
N1048       N  0.07201178  0.97885159  0.65001888    -0.05460
N1049       N  0.08954054  0.96841021  0.62800487    -0.61100
N1050       N  0.07172495  0.00868968  0.64991764    -0.07370
N1051       N  0.08908445  0.01931629  0.62784461    -0.60120
N1052       N  0.07509122  0.97892738  0.71898370    -0.05100
N1053       N  0.10055000  0.96922851  0.73167145    -0.61190
Mn1054     Mn  0.04837949  0.95290971  0.68525940     1.18440
C1055       C  0.11541804  0.99481027  0.74006774     0.97110
C1056       C  0.09979494  0.99391359  0.61433233     0.97770
N1057       N  0.94149375  0.97849036  0.72088727    -0.07390
N1058       N  0.91732245  0.96710515  0.73439158    -0.63700
N1059       N  0.94163372  0.00856782  0.65147414    -0.06190
N1060       N  0.92368363  0.01895666  0.62981781    -0.64370
N1061       N  0.94200624  0.97872637  0.65141895    -0.06890
N1062       N  0.92427897  0.96806752  0.62971104    -0.63960
N1063       N  0.93983432  0.00842872  0.72042022    -0.05790
N1064       N  0.91395477  0.01736193  0.73306826    -0.64650
Mn1065     Mn  0.96695142  0.95295923  0.68608600     1.10660
C1066       C  0.90004787  0.99127599  0.74186660     0.98330
C1067       C  0.91323170  0.99342351  0.61637630     0.98400
N1068       N  0.02142070  0.05846103  0.65040606    -0.06900
N1069       N  0.03169425  0.07588214  0.62822665    -0.62280
N1070       N  0.99230394  0.06121181  0.71973611    -0.06220
N1071       N  0.98273152  0.08682500  0.73226792    -0.59010
N1072       N  0.02231534  0.06064012  0.71946923    -0.07530
N1073       N  0.03315390  0.08562934  0.73197549    -0.61840
N1074       N  0.99155816  0.05849145  0.65083479    -0.06520
N1075       N  0.98076099  0.07585648  0.62894011    -0.59030
Mn1076     Mn  0.04771653  0.03441438  0.68510337     1.20190
Mn1077     Mn  0.96599957  0.03452531  0.68611015     1.10090
Cl1078     Cl  0.00727253  0.99370605  0.68633351    -0.87000
C1079       C  0.00605289  0.08632214  0.61500180     0.95330
C1080       C  0.00843070  0.10192439  0.74003321     0.95130
C1081       C  0.00332488  0.25287887  0.23665880    -0.00470
C1082       C  0.00235269  0.23080249  0.25846985    -0.00470
C1083       C  0.74348753  0.99463625  0.23980983    -0.00470
C1084       C  0.76492598  0.99703139  0.26219597    -0.00470
C1085       C  0.00607921  0.73133888  0.23955964    -0.00470
C1086       C  0.00582495  0.75335897  0.26136387    -0.00470
C1087       C  0.26523480  0.99623960  0.23523890    -0.00470
C1088       C  0.24270430  0.99942257  0.25636472    -0.00470
C1089       C  0.26347062  0.25512923  0.49820830    -0.00470
C1090       C  0.24167800  0.23306723  0.49739394    -0.00470
C1091       C  0.74164206  0.25064886  0.50424849    -0.00470
C1092       C  0.76410767  0.22939020  0.50594874    -0.00470
C1093       C  0.26878688  0.73350423  0.49128193    -0.00470
C1094       C  0.24632830  0.75484912  0.48873311    -0.00470
C1095       C  0.24673359  0.99402322  0.73492072    -0.00470
C1096       C  0.26868756  0.99386849  0.75683164    -0.00470
C1097       C  0.24029690  0.25074014  0.99095139    -0.00470
C1098       C  0.26233719  0.22886597  0.98943467    -0.00470
C1099       C  0.24777909  0.72885702  0.99392744    -0.00470
C1100       C  0.26931155  0.75098814  0.99012858    -0.00470
C1101       C  0.50572797  0.72907516  0.25593499    -0.00470
C1102       C  0.50591546  0.75080906  0.23385188    -0.00470
C1103       C  0.49958789  0.24958880  0.26204753    -0.00470
C1104       C  0.50429194  0.22798461  0.24022322    -0.00470
C1105       C  0.50385161  0.25532906  0.73905378    -0.00470
C1106       C  0.50398843  0.23350951  0.76117207    -0.00470
C1107       C  0.00402276  0.23323119  0.73692540    -0.00470
C1108       C  0.00363235  0.25510771  0.75893174    -0.00470
C1109       C  0.76329961  0.25599441  0.99744782    -0.00470
C1110       C  0.74170603  0.23416293  0.00249640    -0.00470
C1111       C  0.26526129  0.49845208  0.25939366    -0.00470
C1112       C  0.24400140  0.49611302  0.23694948    -0.00470
C1113       C  0.74418504  0.48575528  0.26198405    -0.00470
C1114       C  0.76523859  0.48504226  0.23897874    -0.00470
C1115       C  0.26704522  0.49916336  0.73834393    -0.00470
C1116       C  0.24597019  0.49624994  0.76099212    -0.00470
C1117       C  0.00119918  0.73330625  0.76078471    -0.00470
C1118       C  0.00369023  0.75613811  0.73987920    -0.00470
C1119       C  0.74714235  0.98664303  0.76270770    -0.00470
C1120       C  0.76837209  0.98845256  0.74005173    -0.00470
C1121       C  0.76800619  0.73487852  0.99954424    -0.00470
C1122       C  0.74611756  0.75682627  0.99886860    -0.00470
C1123       C  0.74355882  0.50503172  0.73767837    -0.00470
C1124       C  0.76685387  0.50540109  0.75833793    -0.00470
C1125       C  0.74587220  0.73088834  0.50895039    -0.00470
C1126       C  0.76905344  0.75163274  0.51025557    -0.00470
C1127       C  0.50209862  0.73352692  0.73419094    -0.00470
C1128       C  0.50499513  0.75501302  0.75658898    -0.00470
C1129       C  0.85002975  0.01529797  0.75481304    -0.21340
C1130       C  0.86651916  0.98892936  0.74712058    -0.07910
C1131       C  0.85001605  0.96191850  0.74050117     0.12960
C1132       C  0.81828332  0.96291521  0.73933666    -0.21390
C1133       C  0.80182205  0.98921515  0.74623261    -0.07910
C1134       C  0.81795647  0.01578698  0.75455711     0.12950
C1135       C  0.80233769  0.04535634  0.76182631    -0.24740
H1136       H  0.86222630  0.03606896  0.75996862     0.14240
H1137       H  0.80622080  0.94285277  0.73217865     0.14270
C1138       C  0.86497489  0.93187218  0.73318868    -0.24690
H1139       H  0.80811302  0.05238224  0.78538025     0.04480
H1140       H  0.77729238  0.04388614  0.76007150     0.07700
H1141       H  0.81019621  0.06318590  0.74574755     0.07700
H1142       H  0.88011911  0.92498850  0.75215738     0.07690
H1143       H  0.87790989  0.93355577  0.71154304     0.07690
H1144       H  0.84811085  0.91332258  0.73016434     0.04460
C1145       C  0.98121548  0.15036991  0.75092052    -0.21340
C1146       C  0.00902146  0.13544849  0.74573391    -0.07910
C1147       C  0.03572633  0.15341890  0.74261568     0.12960
C1148       C  0.03324471  0.18522319  0.74217758    -0.21390
C1149       C  0.00510133  0.19997725  0.74446760    -0.07910
C1150       C  0.97888908  0.18227096  0.75050690     0.12950
C1151       C  0.94836641  0.19643293  0.75664822    -0.24740
H1152       H  0.96084154  0.13694522  0.75433807     0.14240
H1153       H  0.05354044  0.19861951  0.73898867     0.14270
C1154       C  0.06696594  0.13984616  0.73845763    -0.24690
H1155       H  0.93043459  0.17899457  0.76013646     0.04480
H1156       H  0.94115152  0.21083648  0.73745526     0.07700
H1157       H  0.94951736  0.21005649  0.77771376     0.07700
H1158       H  0.06831202  0.12762539  0.71640564     0.07690
H1159       H  0.07209555  0.12419747  0.75757909     0.07690
H1160       H  0.08500716  0.15751912  0.73809735     0.04460
C1161       C  0.16462727  0.02184734  0.73492465    -0.21340
C1162       C  0.14892232  0.99600371  0.74523519    -0.07910
C1163       C  0.16596706  0.97135282  0.75693565     0.12960
C1164       C  0.19797777  0.97253640  0.75607603    -0.21390
C1165       C  0.21354263  0.99711385  0.74270905    -0.07910
C1166       C  0.19642533  0.02271190  0.73334589     0.12950
C1167       C  0.21055528  0.05145031  0.72123442    -0.24740
H1168       H  0.15204230  0.04125827  0.72648319     0.14240
H1169       H  0.21072681  0.95324919  0.76427007     0.14270
C1170       C  0.15077736  0.94352224  0.76992181    -0.24690
H1171       H  0.20248803  0.07112104  0.73487422     0.04480
H1172       H  0.20377785  0.05479327  0.69714154     0.07700
H1173       H  0.23552602  0.05144908  0.72254487     0.07700
H1174       H  0.13858298  0.93099343  0.75176818     0.07690
H1175       H  0.13455886  0.95027225  0.78809223     0.07690
H1176       H  0.16755770  0.92760101  0.78001668     0.04460
C1177       C  0.98128821  0.80516952  0.75897098    -0.21340
C1178       C  0.00691266  0.78881651  0.74923251    -0.07910
C1179       C  0.03435473  0.80480448  0.74427007     0.12960
C1180       C  0.03425385  0.83666875  0.74435880    -0.21390
C1181       C  0.00742534  0.85329797  0.74949065    -0.07910
C1182       C  0.98082987  0.83717901  0.75834933     0.12950
C1183       C  0.95156467  0.85315561  0.76632449    -0.24740
H1184       H  0.96092789  0.79294508  0.76537968     0.14240
H1185       H  0.05520447  0.84846688  0.73893433     0.14270
C1186       C  0.06423037  0.78896468  0.73892302    -0.24690
H1187       H  0.93417702  0.83705540  0.77510200     0.04480
H1188       H  0.94179088  0.86411468  0.74582841     0.07700
H1189       H  0.95578552  0.87042327  0.78423524     0.07700
H1190       H  0.06268473  0.76411762  0.74244031     0.07690
H1191       H  0.08131183  0.79757187  0.75539220     0.07690
H1192       H  0.07235869  0.79361307  0.71544866     0.04460
C1193       C  0.15946558  0.01978261  0.24287069    -0.21340
C1194       C  0.14537166  0.99156272  0.24815585    -0.07910
C1195       C  0.16406098  0.96525879  0.24983856     0.12960
C1196       C  0.19584653  0.96860669  0.25004738    -0.21390
C1197       C  0.20975505  0.99721081  0.24783483    -0.07910
C1198       C  0.19125709  0.02278103  0.24180697     0.12950
C1199       C  0.20397565  0.05342223  0.23384315    -0.24740
H1200       H  0.14559813  0.03994594  0.24006090     0.14240
H1201       H  0.21001310  0.94874068  0.25318525     0.14270
C1202       C  0.15124361  0.93359148  0.25257362    -0.24690
H1203       H  0.19304317  0.06184431  0.21271012     0.04480
H1204       H  0.22852721  0.05241647  0.22903420     0.07700
H1205       H  0.19937329  0.06976177  0.25253986     0.07700
H1206       H  0.13522636  0.92917978  0.23357961     0.07690
H1207       H  0.13956092  0.93076869  0.27478846     0.07690
H1208       H  0.16934231  0.91602002  0.25142176     0.04460
C1209       C  0.03185255  0.83555119  0.26374670    -0.21340
C1210       C  0.00687177  0.85083728  0.25108481    -0.07910
C1211       C  0.98340538  0.83351602  0.23749639     0.12960
C1212       C  0.98490665  0.80150303  0.23842288    -0.21390
C1213       C  0.00861886  0.78645226  0.25371211    -0.07910
C1214       C  0.03308980  0.80387341  0.26517135     0.12950
C1215       C  0.06138445  0.78987321  0.27844104    -0.24740
H1216       H  0.05036412  0.84835649  0.27374325     0.14240
H1217       H  0.96657888  0.78825591  0.22872766     0.14270
C1218       C  0.95662969  0.84850457  0.22237589    -0.24690
H1219       H  0.08177535  0.80001625  0.26747189     0.04480
H1220       H  0.06279047  0.76516936  0.27422299     0.07700
H1221       H  0.06229042  0.79435470  0.30328434     0.07700
H1222       H  0.96474285  0.86438806  0.20448993     0.07690
H1223       H  0.94293734  0.86111498  0.23942281     0.07690
H1224       H  0.94141524  0.83156434  0.21147842     0.04460
C1225       C  0.84814812  0.02055577  0.26341912    -0.21340
C1226       C  0.86277855  0.99430599  0.25263417    -0.07910
C1227       C  0.84470127  0.97014078  0.24135566     0.12960
C1228       C  0.81269325  0.97256688  0.24236698    -0.21390
C1229       C  0.79827910  0.99827957  0.25485743    -0.07910
C1230       C  0.81651253  0.02278088  0.26491347     0.12950
C1231       C  0.80358008  0.05190784  0.27736312    -0.24740
H1232       H  0.86144927  0.03940205  0.27204534     0.14240
H1233       H  0.79884347  0.95355964  0.23506716     0.14270
C1234       C  0.85881115  0.94164798  0.22866290    -0.24690
H1235       H  0.81374406  0.07155153  0.26515748     0.04480
H1236       H  0.80887051  0.05383053  0.30197958     0.07700
H1237       H  0.77888334  0.05354025  0.27406384     0.07700
H1238       H  0.87098830  0.92915480  0.24685081     0.07690
H1239       H  0.87491102  0.94758176  0.21009935     0.07690
H1240       H  0.84136540  0.92606519  0.21917256     0.04460
C1241       C  0.03033945  0.18257111  0.26168869    -0.21340
C1242       C  0.00416094  0.19753410  0.25151908    -0.07910
C1243       C  0.97934321  0.17986012  0.24098677     0.12960
C1244       C  0.98141132  0.14791502  0.24167099    -0.21390
C1245       C  0.00748256  0.13300722  0.25248224    -0.07910
C1246       C  0.03263855  0.15086068  0.26210465     0.12950
C1247       C  0.06155926  0.13730778  0.27463260    -0.24740
H1248       H  0.04907986  0.19600882  0.27025201     0.14240
H1249       H  0.96215231  0.13440571  0.23437517     0.14270
C1250       C  0.95022905  0.19390913  0.22981809    -0.24690
H1251       H  0.07838248  0.15501500  0.28103474     0.04480
H1252       H  0.07249456  0.12269224  0.25718062     0.07700
H1253       H  0.05651747  0.12399916  0.29550904     0.07700
H1254       H  0.95399785  0.20412753  0.20721455     0.07690
H1255       H  0.94164050  0.21122774  0.24588258     0.07690
H1256       H  0.93204947  0.17662132  0.22698891     0.04460
C1257       C  0.02951192  0.24385523  0.65434739    -0.21340
C1258       C  0.00155214  0.24156132  0.63901472    -0.07910
C1259       C  0.97439179  0.24237970  0.65660582     0.12960
C1260       C  0.97626298  0.24230916  0.68853486    -0.21390
C1261       C  0.00423434  0.24112613  0.70369423    -0.07910
C1262       C  0.03121139  0.24383536  0.68628035     0.12950
C1263       C  0.06220730  0.24660103  0.70031628    -0.24740
H1264       H  0.05049428  0.24449013  0.64138703     0.14240
H1265       H  0.95555876  0.24215577  0.70172590     0.14270
C1266       C  0.94317554  0.24234857  0.64245643    -0.24690
H1267       H  0.07650465  0.22698187  0.69338056     0.04480
H1268       H  0.06125598  0.24747087  0.72533104     0.07700
H1269       H  0.07317418  0.26792134  0.69239500     0.07700
H1270       H  0.93877759  0.22026790  0.63110062     0.07690
H1271       H  0.94126614  0.26128276  0.62587869     0.07690
H1272       H  0.92498470  0.24546486  0.65975356     0.04460
C1273       C  0.81109391  0.22681910  0.47535978    -0.21340
C1274       C  0.79706589  0.23728309  0.50203201    -0.07910
C1275       C  0.81540554  0.25063644  0.52491763     0.12960
C1276       C  0.84728724  0.24989312  0.52180344    -0.21390
C1277       C  0.86139467  0.23706293  0.49612197    -0.07910
C1278       C  0.84277777  0.22630094  0.47201035     0.12950
C1279       C  0.85556499  0.21234771  0.44332910    -0.24740
H1280       H  0.79704646  0.21754224  0.45740451     0.14240
H1281       H  0.86136375  0.25891237  0.53989107     0.14270
C1282       C  0.80218465  0.26598471  0.55254465    -0.24690
H1283       H  0.83739179  0.20508921  0.42738179     0.04480
H1284       H  0.86908308  0.19181053  0.44899500     0.07700
H1285       H  0.86987401  0.22920532  0.43113793     0.07700
H1286       H  0.78210521  0.25376118  0.56136875     0.07690
H1287       H  0.79564308  0.28953871  0.54655513     0.07690
H1288       H  0.81907096  0.26735175  0.57124958     0.04460
C1289       C  0.19285102  0.25476866  0.51829372    -0.21340
C1290       C  0.20848840  0.24041470  0.49431076    -0.07910
C1291       C  0.19155316  0.22954694  0.46921286     0.12960
C1292       C  0.15979316  0.23050050  0.47008648    -0.21390
C1293       C  0.14394626  0.24202321  0.49535366    -0.07910
C1294       C  0.16079291  0.25511573  0.51947993     0.12950
C1295       C  0.14529784  0.26903984  0.54670403    -0.24740
H1296       H  0.20568728  0.26415630  0.53706776     0.14240
H1297       H  0.14738253  0.22098363  0.45105572     0.14270
C1298       C  0.20615540  0.21742686  0.44063728    -0.24690
H1299       H  0.16189686  0.27986386  0.56233906     0.04480
H1300       H  0.13306422  0.25130724  0.55983734     0.07700
H1301       H  0.12902493  0.28675638  0.53912520     0.07700
H1302       H  0.20179626  0.19265467  0.43866527     0.07690
H1303       H  0.23087592  0.22174383  0.43983248     0.07690
H1304       H  0.19634701  0.22910875  0.42051745     0.04460
C1305       C  0.02446538  0.24878135  0.34077312    -0.21340
C1306       C  0.99829395  0.23888183  0.35630434    -0.07910
C1307       C  0.97250135  0.22999889  0.33892034     0.12960
C1308       C  0.97427673  0.23018899  0.30710107    -0.21390
C1309       C  0.00096092  0.23820710  0.29168056    -0.07910
C1310       C  0.02641949  0.24792797  0.30882423     0.12950
C1311       C  0.05665606  0.25547950  0.29462665    -0.24740
H1312       H  0.04434062  0.25543355  0.35370972     0.14240
H1313       H  0.95502747  0.22221375  0.29413199     0.14270
C1314       C  0.94345346  0.21825152  0.35305545    -0.24690
H1315       H  0.07459224  0.24089448  0.30472747     0.04480
H1316       H  0.06228105  0.27967025  0.29909386     0.07700
H1317       H  0.05706158  0.25153797  0.26983192     0.07700
H1318       H  0.93345656  0.23580788  0.36818688     0.07690
H1319       H  0.94804451  0.19704577  0.36595312     0.07690
H1320       H  0.92602999  0.21261571  0.33567799     0.04460
C1321       C  0.24435068  0.96670417  0.65299129    -0.21340
C1322       C  0.25504493  0.99230290  0.63713834    -0.07910
C1323       C  0.26791010  0.01654635  0.65396490     0.12960
C1324       C  0.26803077  0.01515501  0.68603328    -0.21390
C1325       C  0.25426861  0.99088822  0.70173730    -0.07910
C1326       C  0.24381849  0.96564448  0.68478730     0.12950
C1327       C  0.23201469  0.93697299  0.69934944    -0.24740
H1328       H  0.23504313  0.94757357  0.64058107     0.14240
H1329       H  0.27731089  0.03399279  0.69881872     0.14270
C1330       C  0.28107307  0.04410770  0.63846067    -0.24690
H1331       H  0.24363140  0.91698464  0.68917152     0.04480
H1332       H  0.20717836  0.93491809  0.69538232     0.07700
H1333       H  0.23672765  0.93606235  0.72400025     0.07700
H1334       H  0.26289512  0.05693298  0.62662861     0.07690
H1335       H  0.29871172  0.03700033  0.62181771     0.07690
H1336       H  0.29182558  0.05984162  0.65502146     0.04460
C1337       C  0.26414894  0.18488625  0.47591480    -0.21340
C1338       C  0.24925593  0.19994041  0.49994742    -0.07910
C1339       C  0.23796053  0.18247132  0.52453041     0.12960
C1340       C  0.23931236  0.15078589  0.52321450    -0.21390
C1341       C  0.25161273  0.13549414  0.49798873    -0.07910
C1342       C  0.26481936  0.15285456  0.47424750     0.12950
C1343       C  0.27923707  0.13790047  0.44699252    -0.24740
H1344       H  0.27377883  0.19815980  0.45752155     0.14240
H1345       H  0.22956634  0.13797379  0.54190387     0.14270
C1346       C  0.22502657  0.19642107  0.55308119    -0.24690
H1347       H  0.28985703  0.15484474  0.43153792     0.04480
H1348       H  0.26180979  0.12544004  0.43371358     0.07700
H1349       H  0.29719931  0.12189011  0.45455017     0.07700
H1350       H  0.20022367  0.19189818  0.55439014     0.07690
H1351       H  0.22920532  0.22112677  0.55445548     0.07690
H1352       H  0.23624753  0.18627268  0.57329231     0.04460
C1353       C  0.24560360  0.83832566  0.46633617    -0.21340
C1354       C  0.25318804  0.85269753  0.49382759    -0.07910
C1355       C  0.26239292  0.83435676  0.51872603     0.12960
C1356       C  0.26275528  0.80241246  0.51552100    -0.21390
C1357       C  0.25320963  0.78824211  0.48847521    -0.07910
C1358       C  0.24507050  0.80672701  0.46344738     0.12950
C1359       C  0.23559099  0.79414999  0.43308691    -0.24740
H1360       H  0.23866862  0.85176680  0.44689316     0.14240
H1361       H  0.26862484  0.78832217  0.53486315     0.14270
C1362       C  0.27114658  0.84799073  0.54889039    -0.24690
H1363       H  0.21104840  0.79860219  0.42928155     0.04480
H1364       H  0.24008061  0.76968319  0.43119651     0.07700
H1365       H  0.24895332  0.80522513  0.41469452     0.07700
H1366       H  0.25114054  0.85906265  0.55958203     0.07690
H1367       H  0.28959376  0.86489502  0.54556787     0.07690
H1368       H  0.27946006  0.83042617  0.56500605     0.04460
C1369       C  0.25316948  0.02150352  0.33971310    -0.21340
C1370       C  0.25086480  0.99315076  0.35421147    -0.07910
C1371       C  0.25001428  0.96655093  0.33580681     0.12960
C1372       C  0.24988962  0.96944731  0.30389866    -0.21390
C1373       C  0.24948628  0.99799951  0.28971341    -0.07910
C1374       C  0.25220516  0.02434530  0.30798720     0.12950
C1375       C  0.25366189  0.05602154  0.29525679    -0.24740
H1376       H  0.25446889  0.04204006  0.35326808     0.14240
H1377       H  0.24863262  0.94924060  0.28989014     0.14270
C1378       C  0.24795581  0.93502494  0.34908552    -0.24690
H1379       H  0.23320683  0.06899382  0.30237781     0.04480
H1380       H  0.25531764  0.05629458  0.27031057     0.07700
H1381       H  0.27423044  0.06771624  0.30405918     0.07700
H1382       H  0.22597110  0.93211107  0.36118860     0.07690
H1383       H  0.26720852  0.93109172  0.36488632     0.07690
H1384       H  0.24899365  0.91721616  0.33119417     0.04460
C1385       C  0.75929331  0.14632436  0.52984159    -0.21340
C1386       C  0.75485381  0.13162594  0.50176721    -0.07910
C1387       C  0.74831570  0.14976086  0.47584999     0.12960
C1388       C  0.74893895  0.18172582  0.47841313    -0.21390
C1389       C  0.75689911  0.19605656  0.50584379    -0.07910
C1390       C  0.76117071  0.17803664  0.53205275     0.12950
C1391       C  0.76910478  0.19187094  0.56231308    -0.24740
H1392       H  0.76359079  0.13294137  0.55005799     0.14240
H1393       H  0.74503121  0.19561959  0.45844752     0.14270
C1394       C  0.74130086  0.13593414  0.44530579    -0.24690
H1395       H  0.76981741  0.17459105  0.58071642     0.04480
H1396       H  0.75189663  0.20912405  0.56877493     0.07700
H1397       H  0.79199022  0.20228368  0.56095890     0.07700
H1398       H  0.72232515  0.11944079  0.44758129     0.07690
H1399       H  0.76172630  0.12442194  0.43599247     0.07690
H1400       H  0.73437565  0.15346145  0.42850225     0.04460
C1401       C  0.74148885  0.01050594  0.34555843    -0.21340
C1402       C  0.75697569  0.98647770  0.35975157    -0.07910
C1403       C  0.77153982  0.96438058  0.34123316     0.12960
C1404       C  0.77157354  0.96802303  0.30959548    -0.21390
C1405       C  0.75781375  0.99304151  0.29537577    -0.07910
C1406       C  0.74170140  0.01421330  0.31371518     0.12950
C1407       C  0.72584990  0.04182379  0.30127109    -0.24740
H1408       H  0.73032914  0.02745896  0.35957303     0.14240
H1409       H  0.78344727  0.95150627  0.29566323     0.14270
C1410       C  0.78893440  0.93780121  0.35419293    -0.24690
H1411       H  0.73504818  0.06256545  0.31232530     0.04480
H1412       H  0.70112118  0.04025868  0.30617071     0.07700
H1413       H  0.72895288  0.04459827  0.27654603     0.07700
H1414       H  0.77341824  0.92311218  0.36765657     0.07690
H1415       H  0.80788935  0.94609906  0.36863678     0.07690
H1416       H  0.79911987  0.92337537  0.33610237     0.04460
C1417       C  0.75206413  0.96701814  0.65750117    -0.21340
C1418       C  0.75921765  0.99442501  0.64265130    -0.07910
C1419       C  0.76420413  0.02080736  0.66067724     0.12960
C1420       C  0.76456363  0.01820587  0.69249972    -0.21390
C1421       C  0.75984028  0.99033153  0.70714352    -0.07910
C1422       C  0.75193879  0.96466813  0.68943507     0.12950
C1423       C  0.74324893  0.93475856  0.70364442    -0.24740
H1424       H  0.74728787  0.94699026  0.64398694     0.14240
H1425       H  0.77000340  0.03796150  0.70610060     0.14270
C1426       C  0.77074229  0.05164000  0.64714170    -0.24690
H1427       H  0.74055446  0.91662959  0.68627534     0.04480
H1428       H  0.72107947  0.93722012  0.71522596     0.07700
H1429       H  0.76046165  0.92697575  0.72015501     0.07700
H1430       H  0.75190231  0.05844545  0.63181673     0.07690
H1431       H  0.79262668  0.05116895  0.63452992     0.07690
H1432       H  0.77280948  0.06948807  0.66489948     0.04460
C1433       C  0.77052846  0.83528652  0.53280086    -0.21340
C1434       C  0.75968492  0.84961167  0.50639558    -0.07910
C1435       C  0.74868499  0.83125606  0.48230463     0.12960
C1436       C  0.75019901  0.79931978  0.48484699    -0.21390
C1437       C  0.76304210  0.78522267  0.51054095    -0.07910
C1438       C  0.77310924  0.80366406  0.53489783     0.12950
C1439       C  0.78683762  0.79043157  0.56333044    -0.24740
H1440       H  0.77888914  0.84894767  0.55149647     0.14240
H1441       H  0.74276014  0.78528203  0.46602677     0.14270
C1442       C  0.73556346  0.84499267  0.45382889    -0.24690
H1443       H  0.79176805  0.80817196  0.58060526     0.04480
H1444       H  0.80869691  0.77924887  0.55787054     0.07700
H1445       H  0.77089144  0.77403861  0.57386464     0.07700
H1446       H  0.75345562  0.85733054  0.44100315     0.07690
H1447       H  0.71686601  0.86084219  0.45988120     0.07690
H1448       H  0.72614526  0.82732161  0.43845177     0.04460
C1449       C  0.16276479  0.73394363  0.47421389    -0.21340
C1450       C  0.14900950  0.74631075  0.50032806    -0.07910
C1451       C  0.16803086  0.75691976  0.52416317     0.12960
C1452       C  0.19961844  0.75732530  0.51989855    -0.21390
C1453       C  0.21330917  0.74707590  0.49292307    -0.07910
C1454       C  0.19456030  0.73380246  0.47029059     0.12950
C1455       C  0.20665297  0.72012288  0.44134351    -0.24740
H1456       H  0.14849548  0.72524861  0.45610506     0.14240
H1457       H  0.21383550  0.76705658  0.53747850     0.14270
C1458       C  0.15572474  0.76959853  0.55362559    -0.24690
H1459       H  0.19990888  0.69583827  0.44010666     0.04480
H1460       H  0.23161528  0.72122701  0.43968056     0.07700
H1461       H  0.19697366  0.73230552  0.42146736     0.07700
H1462       H  0.14173636  0.75214243  0.56534945     0.07690
H1463       H  0.14200772  0.79027775  0.54910926     0.07690
H1464       H  0.17417117  0.77626820  0.56951458     0.04460
C1465       C  0.97949577  0.75648533  0.34357675    -0.21340
C1466       C  0.00457610  0.74419663  0.35901252    -0.07910
C1467       C  0.02807508  0.73038854  0.34183821     0.12960
C1468       C  0.02662164  0.73092747  0.30979260    -0.21390
C1469       C  0.00288727  0.74598091  0.29454792    -0.07910
C1470       C  0.97827849  0.75746901  0.31183762     0.12950
C1471       C  0.94992492  0.77039159  0.29764070    -0.24740
H1472       H  0.96091782  0.76656717  0.35628998     0.14240
H1473       H  0.04503511  0.72115732  0.29665865     0.14270
C1474       C  0.05484264  0.71543667  0.35700927    -0.24690
H1475       H  0.92959818  0.75933550  0.30781268     0.04480
H1476       H  0.94870002  0.76602376  0.27292393     0.07700
H1477       H  0.94874608  0.79522396  0.30195576     0.07700
H1478       H  0.04671654  0.69781713  0.37317625     0.07690
H1479       H  0.06855132  0.73259890  0.36936356     0.07690
H1480       H  0.07004870  0.70427259  0.34017558     0.04460
C1481       C  0.98028074  0.75912364  0.65679465    -0.21340
C1482       C  0.00676283  0.74941088  0.64179835    -0.07910
C1483       C  0.03166722  0.73923036  0.65953792     0.12960
C1484       C  0.02926347  0.73924800  0.69156830    -0.21390
C1485       C  0.00325138  0.75059417  0.70634458    -0.07910
C1486       C  0.97822423  0.76006788  0.68848269     0.12950
C1487       C  0.94826112  0.77006530  0.70181801    -0.24740
H1488       H  0.96090679  0.76689581  0.64374492     0.14240
H1489       H  0.04823533  0.73141101  0.70508509     0.14270
C1490       C  0.06094195  0.72877360  0.64510347    -0.24690
H1491       H  0.92946536  0.75719173  0.69093917     0.04480
H1492       H  0.94483071  0.79469554  0.69758805     0.07700
H1493       H  0.94649734  0.76540176  0.72639530     0.07700
H1494       H  0.07216951  0.74803699  0.63327413     0.07690
H1495       H  0.05626761  0.71022720  0.62864970     0.07690
H1496       H  0.07719964  0.72004041  0.66231975     0.04460
C1497       C  0.85265893  0.73007633  0.52276717    -0.21340
C1498       C  0.86611506  0.74519318  0.49806599    -0.07910
C1499       C  0.84697791  0.75786220  0.47537980     0.12960
C1500       C  0.81534410  0.75601955  0.47883065    -0.21390
C1501       C  0.80180149  0.74319918  0.50477571    -0.07910
C1502       C  0.82084022  0.72862664  0.52638574     0.12950
C1503       C  0.80851517  0.71249678  0.55393577    -0.24740
H1504       H  0.86724952  0.72010148  0.53991317     0.14240
H1505       H  0.80090332  0.76671355  0.46199222     0.14270
C1506       C  0.85917691  0.77561197  0.44860438    -0.24690
H1507       H  0.82671997  0.70734445  0.57063018     0.04480
H1508       H  0.79872534  0.69046034  0.54698257     0.07700
H1509       H  0.79126095  0.72641652  0.56574233     0.07700
H1510       H  0.87342964  0.76069063  0.43406740     0.07690
H1511       H  0.87266216  0.79533414  0.45677118     0.07690
H1512       H  0.84068296  0.78473780  0.43405219     0.04460
C1513       C  0.74752219  0.15222595  0.03015935    -0.21340
C1514       C  0.75317095  0.13659040  0.00280300    -0.07910
C1515       C  0.76045521  0.15385355  0.97646088     0.12960
C1516       C  0.75901681  0.18581261  0.97769117    -0.21390
C1517       C  0.75003347  0.20109942  0.00426676    -0.07910
C1518       C  0.74531206  0.18404162  0.03109999     0.12950
C1519       C  0.73663840  0.19902783  0.06064192    -0.24740
H1520       H  0.74259473  0.13947659  0.05066522     0.14240
H1521       H  0.76284350  0.19883100  0.95718237     0.14270
C1522       C  0.76906151  0.13909694  0.94671565    -0.24690
H1523       H  0.73591309  0.18251670  0.07974191     0.04480
H1524       H  0.71365358  0.20900695  0.05861852     0.07700
H1525       H  0.75339879  0.21689199  0.06654530     0.07700
H1526       H  0.74919782  0.12718255  0.93679663     0.07690
H1527       H  0.78799845  0.12283187  0.95037499     0.07690
H1528       H  0.77675363  0.15612174  0.92969336     0.04460
C1529       C  0.74365478  0.83852657  0.02711950    -0.21340
C1530       C  0.75488849  0.85458265  0.00184962    -0.07910
C1531       C  0.76831006  0.83794951  0.97773764     0.12960
C1532       C  0.76793866  0.80590712  0.97860856    -0.21390
C1533       C  0.75363332  0.78998727  0.00245144    -0.07910
C1534       C  0.74300148  0.80673045  0.02782569     0.12950
C1535       C  0.73072454  0.79202468  0.05621828    -0.24740
H1536       H  0.73403140  0.85078692  0.04624010     0.14240
H1537       H  0.77739372  0.79341432  0.95969789     0.14270
C1538       C  0.78275183  0.85365678  0.95090495    -0.24690
H1539       H  0.70608684  0.79705432  0.05853651     0.04480
H1540       H  0.73414292  0.76725724  0.05643325     0.07700
H1541       H  0.74287595  0.80114004  0.07637931     0.07700
H1542       H  0.80031299  0.86988603  0.95896085     0.07690
H1543       H  0.76527680  0.86595437  0.93756533     0.07690
H1544       H  0.79392820  0.83720017  0.93531776     0.04460
C1545       C  0.76935196  0.97371943  0.84622963    -0.21340
C1546       C  0.75547080  0.99903731  0.85985591    -0.07910
C1547       C  0.74336555  0.02209314  0.84077612     0.12960
C1548       C  0.74352131  0.01789788  0.80915982    -0.21390
C1549       C  0.75494840  0.99135987  0.79562378    -0.07910
C1550       C  0.76925487  0.96945060  0.81450054     0.12950
C1551       C  0.78336081  0.94060870  0.80277868    -0.24740
H1552       H  0.77897432  0.95618101  0.86061535     0.14240
H1553       H  0.73301859  0.03493241  0.79481050     0.14270
C1554       C  0.72827697  0.05035630  0.85307829    -0.24690
H1555       H  0.77236900  0.92073020  0.81382598     0.04480
H1556       H  0.80799685  0.94043042  0.80825072     0.07700
H1557       H  0.78082112  0.93784936  0.77804355     0.07700
H1558       H  0.74467974  0.06345760  0.86705767     0.07690
H1559       H  0.70802626  0.04410821  0.86685441     0.07690
H1560       H  0.72031102  0.06562283  0.83460893     0.04460
C1561       C  0.75926609  0.01767299  0.15741805    -0.21340
C1562       C  0.75110572  0.99083953  0.14210279    -0.07910
C1563       C  0.74544851  0.96423853  0.15964790     0.12960
C1564       C  0.74598036  0.96603065  0.19150488    -0.21390
C1565       C  0.75192746  0.99331815  0.20674012    -0.07910
C1566       C  0.76006337  0.01924358  0.18941475     0.12950
C1567       C  0.76950744  0.04870635  0.20406198    -0.24740
H1568       H  0.76435906  0.03785851  0.14424150     0.14240
H1569       H  0.74009027  0.94615449  0.20470014     0.14270
C1570       C  0.73705188  0.93406605  0.14564249    -0.24690
H1571       H  0.77116189  0.06739230  0.18715540     0.04480
H1572       H  0.79233701  0.04596370  0.21411042     0.07700
H1573       H  0.75327574  0.05590507  0.22190260     0.07700
H1574       H  0.75531583  0.92649068  0.12991319     0.07690
H1575       H  0.71508832  0.93601396  0.13339381     0.07690
H1576       H  0.73416254  0.91599911  0.16306847     0.04460
C1577       C  0.24649471  0.83400632  0.97445644    -0.21340
C1578       C  0.26109712  0.84866107  0.99879467    -0.07910
C1579       C  0.27522293  0.83057783  0.02149639     0.12960
C1580       C  0.27568959  0.79894903  0.01821202    -0.21390
C1581       C  0.26239134  0.78424606  0.99322532    -0.07910
C1582       C  0.24673379  0.80211124  0.97138846     0.12950
C1583       C  0.23108295  0.78899059  0.94396346    -0.24740
H1584       H  0.23564986  0.84765201  0.95704392     0.14240
H1585       H  0.28721307  0.78538139  0.03522465     0.14270
C1586       C  0.29154418  0.84399196  0.04854545    -0.24690
H1587       H  0.20647502  0.79454813  0.94490055     0.04480
H1588       H  0.23340316  0.76410452  0.94231267     0.07700
H1589       H  0.24097528  0.79897883  0.92295224     0.07700
H1590       H  0.27532827  0.85714900  0.06275123     0.07690
H1591       H  0.31047003  0.85878426  0.04072867     0.07690
H1592       H  0.30160503  0.82620594  0.06337063     0.04460
C1593       C  0.25301107  0.14555184  0.96735916    -0.21340
C1594       C  0.25464832  0.13122537  0.99588932    -0.07910
C1595       C  0.25270720  0.14963735  0.02239799     0.12960
C1596       C  0.25228575  0.18150014  0.01938768    -0.21390
C1597       C  0.25428728  0.19568623  0.99082793    -0.07910
C1598       C  0.25272074  0.17728789  0.96448322     0.12950
C1599       C  0.25099906  0.19001798  0.93284265    -0.24740
H1600       H  0.25320262  0.13194528  0.94680131     0.14240
H1601       H  0.25207535  0.19538491  0.03965490     0.14270
C1602       C  0.25215363  0.13640177  0.05403546    -0.24690
H1603       H  0.23072377  0.18062275  0.92111573     0.04480
H1604       H  0.27169290  0.18359786  0.91983552     0.07700
H1605       H  0.24857599  0.21490194  0.93278805     0.07700
H1606       H  0.27426603  0.12546914  0.05923860     0.07690
H1607       H  0.23340283  0.11961725  0.05601483     0.07690
H1608       H  0.24835610  0.15415658  0.07160760     0.04460
C1609       C  0.25845375  0.01875698  0.83957184    -0.21340
C1610       C  0.25873036  0.99055157  0.85467345    -0.07910
C1611       C  0.25672656  0.96370886  0.83683692     0.12960
C1612       C  0.25773959  0.96590727  0.80493782    -0.21390
C1613       C  0.26071365  0.99394300  0.79006011    -0.07910
C1614       C  0.25912444  0.02080879  0.80767964     0.12950
C1615       C  0.25805615  0.05204016  0.79389405    -0.24740
H1616       H  0.25873238  0.03960652  0.85269583     0.14240
H1617       H  0.25698119  0.94536378  0.79159242     0.14270
C1618       C  0.25425564  0.93248202  0.85076140    -0.24690
H1619       H  0.23749751  0.06415652  0.80217594     0.04480
H1620       H  0.25671621  0.05139825  0.76888728     0.07700
H1621       H  0.27857368  0.06508476  0.80066253     0.07700
H1622       H  0.23484301  0.93177736  0.86693724     0.07690
H1623       H  0.27569902  0.92647862  0.86255905     0.07690
H1624       H  0.25028075  0.91470806  0.83326227     0.04460
C1625       C  0.26924318  0.02011727  0.15218967    -0.21340
C1626       C  0.25703551  0.99464671  0.13728993    -0.07910
C1627       C  0.24354796  0.97142100  0.15499757     0.12960
C1628       C  0.24419342  0.97361082  0.18700336    -0.21390
C1629       C  0.25881082  0.99795928  0.20178118    -0.07910
C1630       C  0.27036276  0.02208938  0.18390560     0.12950
C1631       C  0.28428533  0.05040487  0.19719759    -0.24740
H1632       H  0.27931059  0.03839116  0.13905206     0.14240
H1633       H  0.23451090  0.95543491  0.20043353     0.14270
C1634       C  0.22866371  0.94426866  0.14042648    -0.24690
H1635       H  0.27277854  0.07072222  0.18762710     0.04480
H1636       H  0.30883715  0.05137584  0.19133439     0.07700
H1637       H  0.28172723  0.05181687  0.22208742     0.07700
H1638       H  0.24583745  0.93048286  0.12811298     0.07690
H1639       H  0.21084513  0.95195297  0.12430881     0.07690
H1640       H  0.21773690  0.92930151  0.15761818     0.04460
C1641       C  0.53052932  0.14583314  0.24389535    -0.21340
C1642       C  0.50299627  0.13046374  0.24927770    -0.07910
C1643       C  0.47699132  0.14783290  0.25728407     0.12960
C1644       C  0.47872230  0.17982287  0.25684669    -0.21390
C1645       C  0.50562899  0.19491740  0.24846011    -0.07910
C1646       C  0.53220385  0.17758706  0.24355950     0.12950
C1647       C  0.56275737  0.19172432  0.23756953    -0.24740
H1648       H  0.55095539  0.13309193  0.23862779     0.14240
H1649       H  0.45844398  0.19312039  0.26113168     0.14270
C1650       C  0.44720684  0.13312739  0.26571385    -0.24690
H1651       H  0.57985321  0.18177608  0.25323272     0.04480
H1652       H  0.56275274  0.21636721  0.24184492     0.07700
H1653       H  0.56980843  0.18724912  0.21371003     0.07700
H1654       H  0.45082633  0.11649055  0.28435316     0.07690
H1655       H  0.43720560  0.12158227  0.24566717     0.07690
H1656       H  0.43034590  0.15013573  0.27375593     0.04460
C1657       C  0.53267637  0.83324101  0.23766194    -0.21340
C1658       C  0.50567058  0.84855167  0.24531020    -0.07910
C1659       C  0.48014337  0.83102356  0.25439686     0.12960
C1660       C  0.48167702  0.79903463  0.25300730    -0.21390
C1661       C  0.50745281  0.78408961  0.24137462    -0.07910
C1662       C  0.53379602  0.80148520  0.23511311     0.12950
C1663       C  0.56324165  0.78704306  0.22520744    -0.24740
H1664       H  0.55270374  0.84622309  0.23155002     0.14240
H1665       H  0.46210729  0.78576982  0.25978900     0.14270
C1666       C  0.45112593  0.84563280  0.26530299    -0.24690
H1667       H  0.58218649  0.80373412  0.22476140     0.04480
H1668       H  0.56103543  0.77800837  0.20186254     0.07700
H1669       H  0.56970497  0.76869702  0.24117369     0.07700
H1670       H  0.43996180  0.85798152  0.24638705     0.07690
H1671       H  0.45613157  0.86156979  0.28422616     0.07690
H1672       H  0.43463087  0.82848071  0.27379961     0.04460
C1673       C  0.34517700  0.96332705  0.23633529    -0.21340
C1674       C  0.36225509  0.98836887  0.24647022    -0.07910
C1675       C  0.34660624  0.01362713  0.25887699     0.12960
C1676       C  0.31467110  0.01448173  0.25765486    -0.21390
C1677       C  0.29782445  0.99096598  0.24414663    -0.07910
C1678       C  0.31329180  0.96410613  0.23559480     0.12950
C1679       C  0.29685588  0.93574485  0.22584299    -0.24740
H1680       H  0.35668317  0.94325906  0.22784819     0.14240
H1681       H  0.30317079  0.03452756  0.26560990     0.14270
C1682       C  0.36321121  0.04004343  0.27302779    -0.24690
H1683       H  0.30562203  0.91601414  0.23890828     0.04480
H1684       H  0.30068740  0.93166188  0.20119680     0.07700
H1685       H  0.27218649  0.93695944  0.23063591     0.07700
H1686       H  0.37599488  0.05285176  0.25544867     0.07690
H1687       H  0.37905539  0.03164046  0.29077261     0.07690
H1688       H  0.34726072  0.05627624  0.28400822     0.04460
C1689       C  0.66103406  0.96987656  0.25582255    -0.21340
C1690       C  0.64502404  0.99516504  0.24455586    -0.07910
C1691       C  0.66192412  0.02072171  0.23425903     0.12960
C1692       C  0.69367798  0.01976508  0.23483649    -0.21390
C1693       C  0.70982367  0.99463592  0.24582148    -0.07910
C1694       C  0.69315293  0.96925761  0.25673495     0.12950
C1695       C  0.70860371  0.94110212  0.26852919    -0.24740
H1696       H  0.64830505  0.95020518  0.26345641     0.14240
H1697       H  0.70612404  0.03877564  0.22560697     0.14270
C1698       C  0.64735028  0.04873296  0.22077212    -0.24690
H1699       H  0.69214227  0.92228331  0.27208896     0.04480
H1700       H  0.71904453  0.94588892  0.29084318     0.07700
H1701       H  0.72619806  0.93297482  0.25243891     0.07700
H1702       H  0.63251674  0.05983612  0.23793900     0.07690
H1703       H  0.63408987  0.04253276  0.20020988     0.07690
H1704       H  0.66443235  0.06590390  0.21357243     0.04460
C1705       C  0.65882042  0.25593939  0.02039850    -0.21340
C1706       C  0.64372017  0.24100732  0.99652126    -0.07910
C1707       C  0.66143859  0.22685170  0.97342920     0.12960
C1708       C  0.69316896  0.22718553  0.97559364    -0.21390
C1709       C  0.70828161  0.24049994  0.00026201    -0.07910
C1710       C  0.69080291  0.25572439  0.02274695     0.12950
C1711       C  0.70464006  0.27033309  0.05040522    -0.24740
H1712       H  0.64549628  0.26662004  0.03820975     0.14240
H1713       H  0.70646607  0.21578166  0.95823642     0.14270
C1714       C  0.64760875  0.20942413  0.94727220    -0.24690
H1715       H  0.69386914  0.26100171  0.07128506     0.04480
H1716       H  0.70069292  0.29524273  0.04967370     0.07700
H1717       H  0.72930254  0.26600779  0.05223767     0.07700
H1718       H  0.63380542  0.22490180  0.93293821     0.07690
H1719       H  0.63336810  0.19051266  0.95609441     0.07690
H1720       H  0.66517862  0.19916370  0.93225724     0.04460
C1721       C  0.34661418  0.24615487  0.97317588    -0.21340
C1722       C  0.35998104  0.23704813  0.00066161    -0.07910
C1723       C  0.34059957  0.23027752  0.02566146     0.12960
C1724       C  0.30890274  0.23048445  0.02149666    -0.21390
C1725       C  0.29563195  0.23631672  0.99303614    -0.07910
C1726       C  0.31491375  0.24588369  0.96891385     0.12950
C1727       C  0.30306481  0.25542856  0.93834369    -0.24740
H1728       H  0.36124608  0.25225458  0.95426709     0.14240
H1729       H  0.29435478  0.22481092  0.04052236     0.14270
C1730       C  0.35262764  0.22130089  0.05649166    -0.24690
H1731       H  0.32159033  0.26339245  0.92308894     0.04480
H1732       H  0.28717121  0.27459443  0.94096161     0.07700
H1733       H  0.29220440  0.23615986  0.92673755     0.07700
H1734       H  0.36745429  0.23958255  0.06556073     0.07690
H1735       H  0.36546980  0.19965289  0.05476164     0.07690
H1736       H  0.33403547  0.21761302  0.07324076     0.04460
C1737       C  0.47502930  0.23031726  0.84270743    -0.21340
C1738       C  0.49989251  0.24204306  0.85896028    -0.07910
C1739       C  0.52381487  0.25600200  0.84248876     0.12960
C1740       C  0.52318785  0.25577260  0.81041137    -0.21390
C1741       C  0.49978353  0.24110183  0.79428053    -0.07910
C1742       C  0.47456779  0.22981646  0.81084620     0.12950
C1743       C  0.44664199  0.21698076  0.79580167    -0.24740
H1744       H  0.45609242  0.22021289  0.85486230     0.14240
H1745       H  0.54207882  0.26550147  0.79804087     0.14270
C1746       C  0.55025186  0.27080773  0.85841018    -0.24690
H1747       H  0.42606920  0.22818305  0.80527456     0.04480
H1748       H  0.44518929  0.19217219  0.80018360     0.07700
H1749       H  0.44627938  0.22118442  0.77104091     0.07700
H1750       H  0.56385806  0.25350181  0.87066030     0.07690
H1751       H  0.54176723  0.28810607  0.87474041     0.07690
H1752       H  0.56570088  0.28236336  0.84206579     0.04460
C1753       C  0.52188130  0.25059474  0.15735431    -0.21340
C1754       C  0.49782805  0.23606278  0.14221409    -0.07910
C1755       C  0.47492636  0.22158260  0.15986235     0.12960
C1756       C  0.47746710  0.22123430  0.19158187    -0.21390
C1757       C  0.50213605  0.23450959  0.20678063    -0.07910
C1758       C  0.52444868  0.25003304  0.18930489     0.12950
C1759       C  0.55191267  0.26518372  0.20285252    -0.24740
H1760       H  0.53953026  0.26156165  0.14404195     0.14240
H1761       H  0.46020574  0.20961215  0.20479956     0.14270
C1762       C  0.44850888  0.20465786  0.14593909    -0.24690
H1763       H  0.57287472  0.25480695  0.19330540     0.04480
H1764       H  0.55299033  0.26304529  0.22776548     0.07700
H1765       H  0.55163489  0.28976816  0.19715465     0.07700
H1766       H  0.45701491  0.18588018  0.13133679     0.07690
H1767       H  0.43426814  0.22051223  0.13246634     0.07690
H1768       H  0.43351863  0.19428025  0.16346738     0.04460
C1769       C  0.66350457  0.96466737  0.76363692    -0.21340
C1770       C  0.64943000  0.99128939  0.75308189    -0.07910
C1771       C  0.66799907  0.01536384  0.74239743     0.12960
C1772       C  0.69992946  0.01243014  0.74369391    -0.21390
C1773       C  0.71377333  0.98623192  0.75574692    -0.07910
C1774       C  0.69506492  0.96186331  0.76524135     0.12950
C1775       C  0.70736464  0.93228067  0.77713880    -0.24740
H1776       H  0.64981207  0.94589731  0.77186142     0.14240
H1777       H  0.71416617  0.03131787  0.73678724     0.14270
C1778       C  0.65449680  0.04423895  0.72997770    -0.24690
H1779       H  0.69632763  0.91302158  0.76511721     0.04480
H1780       H  0.70264681  0.93034746  0.80189065     0.07700
H1781       H  0.73185937  0.92992557  0.77293879     0.07700
H1782       H  0.64219356  0.05662235  0.74820872     0.07690
H1783       H  0.63862434  0.03880948  0.71113353     0.07690
H1784       H  0.67231169  0.05971546  0.72093640     0.04460
C1785       C  0.31704196  0.02258956  0.75008285    -0.21340
C1786       C  0.30200604  0.99450558  0.74919518    -0.07910
C1787       C  0.31955310  0.96792849  0.74457172     0.12960
C1788       C  0.35149514  0.96989058  0.74466533    -0.21390
C1789       C  0.36664124  0.99772429  0.74883773    -0.07910
C1790       C  0.34892035  0.02472011  0.75000699     0.12950
C1791       C  0.36285256  0.05597124  0.75228757    -0.24740
H1792       H  0.30383451  0.04315402  0.75188279     0.14240
H1793       H  0.36473164  0.94924252  0.74248573     0.14270
C1794       C  0.30514640  0.93742146  0.73916964    -0.24690
H1795       H  0.34543010  0.07418543  0.75083513     0.04480
H1796       H  0.37916061  0.05953103  0.73330154     0.07700
H1797       H  0.37444099  0.05872602  0.77451900     0.07700
H1798       H  0.29157976  0.93828526  0.71806091     0.07690
H1799       H  0.29066418  0.93074372  0.75853153     0.07690
H1800       H  0.32244379  0.91928224  0.73612760     0.04460
C1801       C  0.53439542  0.15236129  0.76252447    -0.21340
C1802       C  0.50957521  0.13590452  0.75102825    -0.07910
C1803       C  0.48497706  0.15212741  0.73818934     0.12960
C1804       C  0.48486731  0.18409168  0.73945567    -0.21390
C1805       C  0.50839434  0.20043065  0.75368519    -0.07910
C1806       C  0.53420192  0.18416926  0.76396476     0.12950
C1807       C  0.56204030  0.19928708  0.77688178    -0.24740
H1808       H  0.55375996  0.14035578  0.77186996     0.14240
H1809       H  0.46532820  0.19609142  0.73084271     0.14270
C1810       C  0.45857720  0.13605592  0.72343823    -0.24690
H1811       H  0.58248234  0.19149723  0.76422015     0.04480
H1812       H  0.56454343  0.19309252  0.80124224     0.07700
H1813       H  0.56144157  0.22420812  0.77488340     0.07700
H1814       H  0.44541390  0.12314455  0.74066421     0.07690
H1815       H  0.46707024  0.12035883  0.70555957     0.07690
H1816       H  0.44267586  0.15233889  0.71253147     0.04460
C1817       C  0.53022319  0.83743090  0.74191756    -0.21340
C1818       C  0.50387487  0.85339337  0.75072614    -0.07910
C1819       C  0.47740739  0.83638595  0.75821242     0.12960
C1820       C  0.47885016  0.80464776  0.75867140    -0.21390
C1821       C  0.50511442  0.78860069  0.75048830    -0.07910
C1822       C  0.53115230  0.80532196  0.74143487     0.12950
C1823       C  0.56023414  0.78984832  0.73208846    -0.24740
H1824       H  0.55049672  0.85017610  0.73608291     0.14240
H1825       H  0.45907823  0.79216438  0.76609988     0.14270
C1826       C  0.44756402  0.85083495  0.76722849    -0.24690
H1827       H  0.57849347  0.80654676  0.72701171     0.04480
H1828       H  0.55651650  0.77640138  0.71120151     0.07700
H1829       H  0.56858034  0.77483102  0.75039610     0.07700
H1830       H  0.43935648  0.86579743  0.74864087     0.07690
H1831       H  0.45030143  0.86388980  0.78865999     0.07690
H1832       H  0.42949645  0.83368209  0.77142317     0.04460
C1833       C  0.35231115  0.75154991  0.96594136    -0.21340
C1834       C  0.36709724  0.74308274  0.99292977    -0.07910
C1835       C  0.34917872  0.73294268  0.01782775     0.12960
C1836       C  0.31718250  0.73295399  0.01532162    -0.21390
C1837       C  0.30259888  0.74359652  0.98892907    -0.07910
C1838       C  0.32065964  0.75232755  0.96372742     0.12950
C1839       C  0.30751556  0.76272349  0.93390795    -0.24740
H1840       H  0.36545883  0.75910192  0.94647751     0.14240
H1841       H  0.30342197  0.72662422  0.03480229     0.14270
C1842       C  0.36334445  0.72275831  0.04728097    -0.24690
H1843       H  0.31773273  0.74942124  0.91499623     0.04480
H1844       H  0.31256685  0.78719324  0.93038351     0.07700
H1845       H  0.28284076  0.75906045  0.93265674     0.07700
H1846       H  0.37465172  0.74219258  0.05867490     0.07690
H1847       H  0.38015591  0.70448334  0.04277133     0.07690
H1848       H  0.34604126  0.71368849  0.06333876     0.04460
C1849       C  0.66475964  0.75745067  0.96943383    -0.21340
C1850       C  0.64858543  0.74595101  0.99450465    -0.07910
C1851       C  0.66511700  0.73323247  0.01899535     0.12960
C1852       C  0.69711988  0.73458675  0.01869217    -0.21390
C1853       C  0.71308117  0.74902572  0.99496914    -0.07910
C1854       C  0.69654247  0.75897825  0.96923730     0.12950
C1855       C  0.71140854  0.77135197  0.94096859    -0.24740
H1856       H  0.65256220  0.76658845  0.95008198     0.14240
H1857       H  0.70950942  0.72572953  0.03791238     0.14270
C1858       C  0.64934466  0.71849954  0.04564824    -0.24690
H1859       H  0.70580636  0.79582230  0.93840172     0.04480
H1860       H  0.73625106  0.76854553  0.94110359     0.07700
H1861       H  0.70292332  0.75880264  0.92077025     0.07700
H1862       H  0.63370516  0.70049438  0.03740928     0.07690
H1863       H  0.63638942  0.73567469  0.05881071     0.07690
H1864       H  0.66584035  0.70781455  0.06148213     0.04460
C1865       C  0.47879311  0.74911923  0.15192222    -0.21340
C1866       C  0.50562911  0.74146086  0.13628090    -0.07910
C1867       C  0.53085243  0.73096052  0.15339622     0.12960
C1868       C  0.52929839  0.73113658  0.18547896    -0.21390
C1869       C  0.50371354  0.74264601  0.20081262    -0.07910
C1870       C  0.47744480  0.74962801  0.18372818     0.12950
C1871       C  0.44745886  0.75768019  0.19815253    -0.24740
H1872       H  0.45880218  0.75609811  0.13936018     0.14240
H1873       H  0.54897517  0.72438078  0.19862928     0.14270
C1874       C  0.55961587  0.72009760  0.13825768    -0.24690
H1875       H  0.42931918  0.74293501  0.18863937     0.04480
H1876       H  0.44185609  0.78180118  0.19331660     0.07700
H1877       H  0.44739371  0.75390853  0.22293158     0.07700
H1878       H  0.57116375  0.73923183  0.12657153     0.07690
H1879       H  0.55418661  0.70193716  0.12159174     0.07690
H1880       H  0.57591075  0.71063315  0.15504830     0.04460
C1881       C  0.48118013  0.74146267  0.83922694    -0.21340
C1882       C  0.50921712  0.74490084  0.85425131    -0.07910
C1883       C  0.53614509  0.74558229  0.83630741     0.12960
C1884       C  0.53382846  0.74650855  0.80442708    -0.21390
C1885       C  0.50563018  0.74641645  0.78964561    -0.07910
C1886       C  0.47903538  0.74199408  0.80730382     0.12950
C1887       C  0.44794435  0.73848312  0.79352964    -0.24740
H1888       H  0.46043176  0.73969425  0.85245714     0.14240
H1889       H  0.55430104  0.74842607  0.79097871     0.14270
C1890       C  0.56752945  0.74636008  0.85005284    -0.24690
H1891       H  0.43827430  0.71613390  0.80017006     0.04480
H1892       H  0.44834992  0.73957900  0.76845505     0.07700
H1893       H  0.43274356  0.75677393  0.80202109     0.07700
H1894       H  0.57032020  0.72707309  0.86609528     0.07690
H1895       H  0.57131927  0.76827623  0.86192622     0.07690
H1896       H  0.58557358  0.74430056  0.83244551     0.04460
C1897       C  0.85032160  0.74094236  0.97347880    -0.21340
C1898       C  0.86578492  0.74203794  0.00140348    -0.07910
C1899       C  0.84845555  0.74636147  0.02841101     0.12960
C1900       C  0.81647845  0.74715481  0.02669724    -0.21390
C1901       C  0.80120568  0.74247354  0.99909498    -0.07910
C1902       C  0.81851415  0.74087036  0.97196018     0.12950
C1903       C  0.80445067  0.73858757  0.94085953    -0.24740
H1904       H  0.86304760  0.73860420  0.95246550     0.14240
H1905       H  0.80341725  0.75002089  0.04733324     0.14270
C1906       C  0.86300856  0.74919865  0.05931179    -0.24690
H1907       H  0.81052752  0.71646560  0.93033267     0.04480
H1908       H  0.81318233  0.75726514  0.92625520     0.07700
H1909       H  0.77951073  0.74072582  0.94141690     0.07700
H1910       H  0.88014507  0.76771847  0.05903748     0.07690
H1911       H  0.87384980  0.72739415  0.06583980     0.07690
H1912       H  0.84603787  0.75464242  0.07725861     0.04460
C1913       C  0.16582437  0.74718987  0.01874048    -0.21340
C1914       C  0.14943450  0.73528015  0.99401172    -0.07910
C1915       C  0.16594191  0.72337740  0.96883993     0.12960
C1916       C  0.19771577  0.72343500  0.96948906    -0.21390
C1917       C  0.21421810  0.73521788  0.99401696    -0.07910
C1918       C  0.19794479  0.74744322  0.01909671     0.12950
C1919       C  0.21377694  0.76011059  0.04666163    -0.24740
H1920       H  0.15338305  0.75597337  0.03814811     0.14240
H1921       H  0.20988639  0.71318781  0.95077086     0.14270
C1922       C  0.15087037  0.70870065  0.94168441    -0.24690
H1923       H  0.19773505  0.76317681  0.06597210     0.04480
H1924       H  0.22312421  0.78278024  0.04127692     0.07700
H1925       H  0.23223981  0.74489635  0.05441555     0.07700
H1926       H  0.13657429  0.72557703  0.92958467     0.07690
H1927       H  0.13695015  0.68899395  0.94915799     0.07690
H1928       H  0.16767601  0.69998235  0.92491640     0.04460
C1929       C  0.02608858  0.75123836  0.80905335    -0.21340
C1930       C  0.99985832  0.74060656  0.79418089    -0.07910
C1931       C  0.97420568  0.73283329  0.81190327     0.12960
C1932       C  0.97626674  0.73298228  0.84366461    -0.21390
C1933       C  0.00318452  0.74131366  0.85872460    -0.07910
C1934       C  0.02807189  0.75180840  0.84107001     0.12950
C1935       C  0.05686331  0.76328867  0.85558472    -0.24740
H1936       H  0.04574734  0.75745426  0.79558453     0.14240
H1937       H  0.95668673  0.72548383  0.85665950     0.14270
C1938       C  0.94426425  0.72400403  0.79808759    -0.24690
H1939       H  0.07282145  0.77275659  0.83840156     0.04480
H1940       H  0.06880422  0.74450270  0.86737323     0.07700
H1941       H  0.05136937  0.78162611  0.87206311     0.07700
H1942       H  0.94046239  0.69920857  0.80088725     0.07690
H1943       H  0.94310912  0.73024804  0.77388134     0.07690
H1944       H  0.92556619  0.73657734  0.80951860     0.04460
C1945       C  0.02992082  0.74681820  0.15700092    -0.21340
C1946       C  0.00342221  0.73802486  0.14148343    -0.07910
C1947       C  0.97698915  0.73105855  0.15886678     0.12960
C1948       C  0.97851244  0.73159158  0.19069247    -0.21390
C1949       C  0.00537559  0.73855933  0.20619414    -0.07910
C1950       C  0.03124164  0.74745099  0.18904438     0.12950
C1951       C  0.06031685  0.75774267  0.20384396    -0.24740
H1952       H  0.04999783  0.75268096  0.14393275     0.14240
H1953       H  0.95867977  0.72516082  0.20357891     0.14270
C1954       C  0.94727184  0.72126543  0.14475236    -0.24690
H1955       H  0.07892835  0.76049256  0.18694694     0.04480
H1956       H  0.06815700  0.74137723  0.22117314     0.07700
H1957       H  0.05675462  0.78020522  0.21445934     0.07700
H1958       H  0.95040907  0.69963713  0.13211239     0.07690
H1959       H  0.93867265  0.73932780  0.12939266     0.07690
H1960       H  0.92935760  0.71710567  0.16211873     0.04460
C1961       C  0.84541344  0.24924342  0.97040508    -0.21340
C1962       C  0.86092583  0.24538322  0.99809307    -0.07910
C1963       C  0.84354604  0.23977827  0.02481550     0.12960
C1964       C  0.81156982  0.24067694  0.02332113    -0.21390
C1965       C  0.79643337  0.24805072  0.99622763    -0.07910
C1966       C  0.81362146  0.25147290  0.96925779     0.12950
C1967       C  0.79889535  0.25915755  0.93935559    -0.24740
H1968       H  0.85825286  0.25295399  0.94967822     0.14240
H1969       H  0.79835040  0.23777259  0.04391608     0.14270
C1970       C  0.85813563  0.23373866  0.05522213    -0.24690
H1971       H  0.81550408  0.25884330  0.92028435     0.04480
H1972       H  0.78935042  0.28237447  0.94052195     0.07700
H1973       H  0.78073132  0.24257925  0.93396570     0.07700
H1974       H  0.86976670  0.25447299  0.06360016     0.07690
H1975       H  0.87462144  0.21474832  0.05316418     0.07690
H1976       H  0.84103984  0.22728731  0.07271283     0.04460
C1977       C  0.97513807  0.25741139  0.84061161    -0.21340
C1978       C  0.00017793  0.24581319  0.85663718    -0.07910
C1979       C  0.02437707  0.23256228  0.83994716     0.12960
C1980       C  0.02354981  0.23294254  0.80787653    -0.21390
C1981       C  0.99990360  0.24750768  0.79204755    -0.07910
C1982       C  0.97462108  0.25834648  0.80880217     0.12950
C1983       C  0.94634959  0.27067281  0.79396303    -0.24740
H1984       H  0.95604234  0.26700935  0.85292102     0.14240
H1985       H  0.04237210  0.22336695  0.79521692     0.14270
C1986       C  0.05133427  0.21844083  0.85560738    -0.24690
H1987       H  0.92600316  0.25944211  0.80390430     0.04480
H1988       H  0.94565782  0.26589878  0.76929912     0.07700
H1989       H  0.94471817  0.29553356  0.79793956     0.07700
H1990       H  0.04347507  0.20082225  0.87190189     0.07690
H1991       H  0.06452693  0.23608498  0.86785133     0.07690
H1992       H  0.06700566  0.20744364  0.83909332     0.04460
C1993       C  0.15941466  0.24598753  0.02262377    -0.21340
C1994       C  0.14245791  0.24108422  0.99597370    -0.07910
C1995       C  0.15834900  0.23338471  0.96891852     0.12960
C1996       C  0.19033362  0.23367960  0.96877575    -0.21390
C1997       C  0.20710981  0.24289620  0.99432164    -0.07910
C1998       C  0.19134666  0.24749355  0.02207228     0.12950
C1999       C  0.20772097  0.25509905  0.05115362    -0.24740
H2000       H  0.14766054  0.25099199  0.04371898     0.14240
H2001       H  0.20195528  0.22844715  0.94788217     0.14270
C2002       C  0.14212858  0.22560070  0.93973073    -0.24690
H2003       H  0.19236985  0.25351367  0.07119585     0.04480
H2004       H  0.21620969  0.27872256  0.05024839     0.07700
H2005       H  0.22685610  0.23917986  0.05490541     0.07700
H2006       H  0.13073593  0.24602292  0.93033874     0.07690
H2007       H  0.12520646  0.20735406  0.94394373     0.07690
H2008       H  0.15814423  0.21734560  0.92198416     0.04460
C2009       C  0.97530847  0.25494235  0.18837558    -0.21340
C2010       C  0.00190319  0.24606715  0.20337977    -0.07910
C2011       C  0.02703671  0.23599306  0.18583071     0.12960
C2012       C  0.02496663  0.23621678  0.15386458    -0.21390
C2013       C  0.99851734  0.24593217  0.13885271    -0.07910
C2014       C  0.97286640  0.25448868  0.15664870     0.12950
C2015       C  0.94306755  0.26467219  0.14302899    -0.24740
H2016       H  0.95619828  0.26281665  0.20176681     0.14240
H2017       H  0.04452725  0.22950623  0.14041835     0.14270
C2018       C  0.05642718  0.22575123  0.20004585    -0.24690
H2019       H  0.92568900  0.26958912  0.16074042     0.04480
H2020       H  0.93369875  0.24646695  0.12828234     0.07700
H2021       H  0.94637415  0.28593363  0.12984017     0.07700
H2022       H  0.05294055  0.20400079  0.21199013     0.07690
H2023       H  0.06530733  0.24292701  0.21603356     0.07690
H2024       H  0.07430868  0.22170204  0.18262947     0.04460
C2025       C  0.84912533  0.46660834  0.25433629    -0.21340
C2026       C  0.86304211  0.49408328  0.24581884    -0.07910
C2027       C  0.84415631  0.51945678  0.23926897     0.12960
C2028       C  0.81244344  0.51575962  0.23916918    -0.21390
C2029       C  0.79868600  0.48764393  0.24528249    -0.07910
C2030       C  0.81737073  0.46309929  0.25453020     0.12950
C2031       C  0.80518200  0.43276596  0.26441841    -0.24740
H2032       H  0.86320396  0.44724617  0.26014214     0.14240
H2033       H  0.79817849  0.53491426  0.23328644     0.14270
C2034       C  0.85669204  0.55027110  0.23094177    -0.24690
H2035       H  0.81275457  0.41487915  0.24827590     0.04480
H2036       H  0.78026960  0.43237814  0.26587240     0.07700
H2037       H  0.81390646  0.42730008  0.28747053     0.07700
H2038       H  0.86958770  0.54884787  0.20925146     0.07690
H2039       H  0.87154558  0.55876897  0.24947679     0.07690
H2040       H  0.83837586  0.56731599  0.22756965     0.04460
C2041       C  0.16114676  0.52067009  0.23335975    -0.21340
C2042       C  0.14607138  0.49533870  0.24570607    -0.07910
C2043       C  0.16362577  0.47203696  0.25918531     0.12960
C2044       C  0.19562985  0.47399976  0.25837678    -0.21390
C2045       C  0.21058238  0.49820682  0.24363798    -0.07910
C2046       C  0.19286785  0.52242820  0.23210117     0.12950
C2047       C  0.20633669  0.55063519  0.21807469    -0.24740
H2048       H  0.14813787  0.53900891  0.22331442     0.14240
H2049       H  0.20892648  0.45573265  0.26800303     0.14270
C2050       C  0.14889868  0.44502254  0.27422831    -0.24690
H2051       H  0.20051734  0.55158704  0.19351899     0.04480
H2052       H  0.23121307  0.55191491  0.22057036     0.07700
H2053       H  0.19687736  0.57103239  0.22957915     0.07700
H2054       H  0.13651927  0.43124503  0.25713566     0.07690
H2055       H  0.13283788  0.45286195  0.29210345     0.07690
H2056       H  0.16598340  0.42999326  0.28514234     0.04460
C2057       C  0.98230067  0.64896684  0.25447925    -0.21340
C2058       C  0.00913026  0.63356977  0.24633393    -0.07910
C2059       C  0.03585170  0.65099165  0.24090481     0.12960
C2060       C  0.03415748  0.68278663  0.24142332    -0.21390
C2061       C  0.00690900  0.69813826  0.24725503    -0.07910
C2062       C  0.98089366  0.68094787  0.25546537     0.12950
C2063       C  0.95168304  0.69565941  0.26566654    -0.24740
H2064       H  0.96205026  0.63587099  0.25955281     0.14240
H2065       H  0.05419778  0.69578235  0.23590028     0.14270
C2066       C  0.06614537  0.63693795  0.23290456    -0.24690
H2067       H  0.93306716  0.67877030  0.26810913     0.04480
H2068       H  0.94396271  0.71318918  0.24947209     0.07700
H2069       H  0.95504711  0.70605897  0.28829144     0.07700
H2070       H  0.06456522  0.62479764  0.21082135     0.07690
H2071       H  0.07335409  0.62115662  0.25122209     0.07690
H2072       H  0.08433472  0.65428488  0.23039185     0.04460
C2073       C  0.03150599  0.30147308  0.23863697    -0.21340
C2074       C  0.00428562  0.28605078  0.24446165    -0.07910
C2075       C  0.97832167  0.30317912  0.25288646     0.12960
C2076       C  0.98012358  0.33514840  0.25369295    -0.21390
C2077       C  0.00709472  0.35068199  0.24614203    -0.07910
C2078       C  0.03356077  0.33322210  0.23964658     0.12950
C2079       C  0.06399722  0.34723813  0.23207057    -0.24740
H2080       H  0.05126112  0.28864700  0.23183992     0.14240
H2081       H  0.95979640  0.34806856  0.25893090     0.14270
C2082       C  0.94798765  0.28883466  0.25966528    -0.24690
H2083       H  0.08198779  0.32980890  0.22884432     0.04480
H2084       H  0.07146015  0.36221382  0.25096135     0.07700
H2085       H  0.06251181  0.36020640  0.21046104     0.07700
H2086       H  0.94830131  0.26386008  0.25728370     0.07690
H2087       H  0.93063849  0.29784519  0.24371816     0.07690
H2088       H  0.94107510  0.29440930  0.28332862     0.04460
C2089       C  0.24746438  0.46471830  0.84136258    -0.21340
C2090       C  0.25587949  0.49052564  0.85825396    -0.07910
C2091       C  0.26747981  0.51609530  0.84234733     0.12960
C2092       C  0.26733430  0.51618617  0.81027125    -0.21390
C2093       C  0.25497302  0.49187056  0.79367882    -0.07910
C2094       C  0.24725260  0.46495599  0.80946020     0.12950
C2095       C  0.23883939  0.43598055  0.79331929    -0.24740
H2096       H  0.23975397  0.44440873  0.85300317     0.14240
H2097       H  0.27522948  0.53611773  0.79824676     0.14270
C2098       C  0.27955555  0.54359675  0.85878323    -0.24690
H2099       H  0.25300839  0.41704596  0.80211978     0.04480
H2100       H  0.24316921  0.43721964  0.76853961     0.07700
H2101       H  0.21450376  0.43064608  0.79746491     0.07700
H2102       H  0.29728986  0.53657705  0.87529067     0.07690
H2103       H  0.26087178  0.55552670  0.87082366     0.07690
H2104       H  0.28996298  0.56016608  0.84278490     0.04460
C2105       C  0.24406877  0.46338844  0.15690058    -0.21340
C2106       C  0.25399045  0.48846269  0.13969370    -0.07910
C2107       C  0.26668886  0.51364071  0.15520719     0.12960
C2108       C  0.26604604  0.51434954  0.18720736    -0.21390
C2109       C  0.25267019  0.49084020  0.20423440    -0.07910
C2110       C  0.24377747  0.46407520  0.18882201     0.12950
C2111       C  0.23406294  0.43573253  0.20536238    -0.24740
H2112       H  0.23536519  0.44337403  0.14548717     0.14240
H2113       H  0.27431559  0.53430029  0.19865586     0.14270
C2114       C  0.28053632  0.54011709  0.13839225    -0.24690
H2115       H  0.24701340  0.41597584  0.19643851     0.04480
H2116       H  0.20940259  0.43171177  0.20178142     0.07700
H2117       H  0.23897373  0.43692846  0.23001059     0.07700
H2118       H  0.26275056  0.55291027  0.12597250     0.07690
H2119       H  0.29803404  0.53178172  0.12216803     0.07690
H2120       H  0.29171870  0.55633478  0.15418291     0.04460
C2121       C  0.24932944  0.68169427  0.02453863    -0.21340
C2122       C  0.25587387  0.69581280  0.99670204    -0.07910
C2123       C  0.26408983  0.67738705  0.97154518     0.12960
C2124       C  0.26315567  0.64554195  0.97446345    -0.21390
C2125       C  0.25439672  0.63135736  0.00177594    -0.07910
C2126       C  0.24837101  0.64994542  0.02756494     0.12950
C2127       C  0.23909465  0.63713270  0.05805254    -0.24740
H2128       H  0.24318593  0.69567382  0.04381211     0.14240
H2129       H  0.26842940  0.63156658  0.95484979     0.14270
C2130       C  0.27346515  0.69064949  0.94136990    -0.24690
H2131       H  0.23601891  0.65521094  0.07543455     0.04480
H2132       H  0.25695465  0.62149659  0.06656456     0.07700
H2133       H  0.21702842  0.62504754  0.05604528     0.07700
H2134       H  0.29640791  0.70060051  0.94348384     0.07690
H2135       H  0.25726703  0.70818921  0.93354006     0.07690
H2136       H  0.27485200  0.67296690  0.92338813     0.04460
C2137       C  0.23982334  0.33409033  0.96823463    -0.21340
C2138       C  0.25011353  0.34833927  0.99489873    -0.07910
C2139       C  0.26130620  0.32993272  0.01885321     0.12960
C2140       C  0.26071567  0.29799145  0.01578363    -0.21390
C2141       C  0.24782727  0.28397023  0.99009298    -0.07910
C2142       C  0.23849039  0.30248994  0.96551587     0.12950
C2143       C  0.22748100  0.28989686  0.93564712    -0.24740
H2144       H  0.23162002  0.34765767  0.94938477     0.14240
H2145       H  0.26846354  0.28387912  0.03441714     0.14270
C2146       C  0.27333749  0.34359413  0.04784041    -0.24690
H2147       H  0.23961222  0.30128557  0.91660270     0.04480
H2148       H  0.20270148  0.29400695  0.93323663     0.07700
H2149       H  0.23238939  0.26546390  0.93326545     0.07700
H2150       H  0.25479304  0.35536783  0.06027594     0.07690
H2151       H  0.29181159  0.35995287  0.04251336     0.07690
H2152       H  0.28270048  0.32594583  0.06327172     0.04460
C2153       C  0.16313560  0.52024489  0.76569700    -0.21340
C2154       C  0.14794412  0.49479100  0.75386898    -0.07910
C2155       C  0.16543683  0.47106612  0.74083364     0.12960
C2156       C  0.19748794  0.47305274  0.74111792    -0.21390
C2157       C  0.21247612  0.49764031  0.75503703    -0.07910
C2158       C  0.19484110  0.52203640  0.76640048     0.12950
C2159       C  0.20853980  0.55096530  0.77856336    -0.24740
H2160       H  0.15023603  0.53888253  0.77537212     0.14240
H2161       H  0.21084824  0.45475001  0.73150726     0.14270
C2162       C  0.15061701  0.44359981  0.72680403    -0.24690
H2163       H  0.19801512  0.57077943  0.76700518     0.04480
H2164       H  0.23318103  0.55261797  0.77414413     0.07700
H2165       H  0.20421501  0.55269230  0.80340202     0.07700
H2166       H  0.13442163  0.45086296  0.70888071     0.07690
H2167       H  0.13838219  0.43036761  0.74448168     0.07690
H2168       H  0.16763167  0.42823164  0.71618334     0.04460
C2169       C  0.03237137  0.33673613  0.75998560    -0.21340
C2170       C  0.00683275  0.35278985  0.74957864    -0.07910
C2171       C  0.98213152  0.33613275  0.73738604     0.12960
C2172       C  0.98303639  0.30410102  0.73771698    -0.21390
C2173       C  0.00719844  0.28822714  0.75138564    -0.07910
C2174       C  0.03281201  0.30497522  0.76136326     0.12950
C2175       C  0.06110341  0.29051212  0.77406931    -0.24740
H2176       H  0.05180776  0.34900970  0.76882913     0.14240
H2177       H  0.96384392  0.29153300  0.72893741     0.14270
C2178       C  0.95454405  0.35175902  0.72449719    -0.24690
H2179       H  0.06400137  0.29733360  0.79821586     0.04480
H2180       H  0.08118979  0.29828013  0.76082569     0.07700
H2181       H  0.06082034  0.26554873  0.77284041     0.07700
H2182       H  0.96159256  0.36812559  0.70660245     0.07690
H2183       H  0.94203053  0.36386138  0.74277594     0.07690
H2184       H  0.93850194  0.33527204  0.71410103     0.04460
C2185       C  0.02991470  0.68564794  0.76813011    -0.21340
C2186       C  0.00559138  0.70005003  0.75325727    -0.07910
C2187       C  0.98465545  0.68145175  0.73694961     0.12960
C2188       C  0.98737249  0.64957611  0.73844719    -0.21390
C2189       C  0.01049639  0.63546090  0.75507990    -0.07910
C2190       C  0.03244652  0.65391738  0.76980525     0.12950
C2191       C  0.05743312  0.64080306  0.78930379    -0.24740
H2192       H  0.04638760  0.69947296  0.78010435     0.14240
H2193       H  0.97094606  0.63538562  0.72680194     0.14270
C2194       C  0.95958570  0.69384033  0.71736594    -0.24690
H2195       H  0.07143939  0.65879629  0.80014349     0.04480
H2196       H  0.07292747  0.62676276  0.77516309     0.07700
H2197       H  0.04744028  0.62684892  0.80787060     0.07700
H2198       H  0.96923631  0.70150618  0.69542023     0.07690
H2199       H  0.94723453  0.71235583  0.72869064     0.07690
H2200       H  0.94250425  0.67611421  0.71177063     0.04460
C2201       C  0.81312814  0.47400085  0.76277600    -0.21340
C2202       C  0.79970038  0.49990649  0.74983138    -0.07910
C2203       C  0.81895843  0.52104613  0.73463326     0.12960
C2204       C  0.85078867  0.51744085  0.73643102    -0.21390
C2205       C  0.86407415  0.49277141  0.75164413    -0.07910
C2206       C  0.84474011  0.47018586  0.76423779     0.12950
C2207       C  0.85674851  0.44294759  0.78128407    -0.24740
H2208       H  0.79861973  0.45722253  0.77351401     0.14240
H2209       H  0.86555659  0.53422952  0.72604207     0.14270
C2210       C  0.80710586  0.54687153  0.71558703    -0.24690
H2211       H  0.83815007  0.42836622  0.79024322     0.04480
H2212       H  0.87046308  0.45052020  0.80107845     0.07700
H2213       H  0.87073399  0.42865620  0.76586623     0.07700
H2214       H  0.78954620  0.56007620  0.72751145     0.07690
H2215       H  0.79787655  0.53779757  0.69404478     0.07690
H2216       H  0.82549400  0.56297645  0.70921399     0.04460
C2217       C  0.74266152  0.33873968  0.97826776    -0.21340
C2218       C  0.75615447  0.35395501  0.00297348    -0.07910
C2219       C  0.76826200  0.33627358  0.02717643     0.12960
C2220       C  0.76837002  0.30456324  0.02484105    -0.21390
C2221       C  0.75658496  0.28935895  0.99945882    -0.07910
C2222       C  0.74253485  0.30672142  0.97623106     0.12950
C2223       C  0.72845829  0.29261296  0.94841980    -0.24740
H2224       H  0.73316722  0.35196164  0.95977365     0.14240
H2225       H  0.77872102  0.29134213  0.04283880     0.14270
C2226       C  0.78286290  0.35006640  0.05502075    -0.24690
H2227       H  0.70370436  0.29753585  0.94815499     0.04480
H2228       H  0.73168965  0.26772287  0.94749188     0.07700
H2229       H  0.73894669  0.30239991  0.92760587     0.07700
H2230       H  0.76605630  0.36422778  0.06746023     0.07690
H2231       H  0.80290977  0.36388552  0.04830917     0.07690
H2232       H  0.79106112  0.33249398  0.07119204     0.04460
C2233       C  0.76065024  0.65270115  0.02600747    -0.21340
C2234       C  0.75884313  0.63708908  0.99817163    -0.07910
C2235       C  0.75486572  0.65438194  0.97112691     0.12960
C2236       C  0.75507223  0.68636410  0.97268398    -0.21390
C2237       C  0.76022144  0.70169417  0.00018361    -0.07910
C2238       C  0.76146242  0.68451698  0.02738892     0.12950
C2239       C  0.76379227  0.69873696  0.05843463    -0.24740
H2240       H  0.76274109  0.64004282  0.04705143     0.14240
H2241       H  0.75247649  0.69936523  0.95200741     0.14270
C2242       C  0.75126216  0.63975225  0.94032443    -0.24690
H2243       H  0.74498351  0.69026723  0.07305856     0.04480
H2244       H  0.76179739  0.72367812  0.05777413     0.07700
H2245       H  0.78583920  0.69253236  0.06900303     0.07700
H2246       H  0.73218898  0.62323742  0.94088724     0.07690
H2247       H  0.77265525  0.62818619  0.93358823     0.07690
H2248       H  0.74618751  0.65676920  0.92236872     0.04460
C2249       C  0.75791116  0.46465592  0.15527215    -0.21340
C2250       C  0.75662466  0.49347433  0.14151939    -0.07910
C2251       C  0.75262393  0.51926753  0.16060144     0.12960
C2252       C  0.75235162  0.51551504  0.19253292    -0.21390
C2253       C  0.75666453  0.48687871  0.20599060    -0.07910
C2254       C  0.75804194  0.46103011  0.18691571     0.12950
C2255       C  0.75985749  0.42908837  0.19896310    -0.24740
H2256       H  0.76004174  0.44448750  0.14128222     0.14240
H2257       H  0.75057350  0.53528590  0.20712218     0.14270
C2258       C  0.74953156  0.55089078  0.14787688    -0.24690
H2259       H  0.74204653  0.41492718  0.18803785     0.04480
H2260       H  0.75555313  0.42794986  0.22361508     0.07700
H2261       H  0.78252191  0.41925939  0.19375906     0.07700
H2262       H  0.73055105  0.55161126  0.13128030     0.07690
H2263       H  0.77105286  0.55792034  0.13670559     0.07690
H2264       H  0.74460343  0.56779088  0.16600604     0.04460
C2265       C  0.76973823  0.52610869  0.84252049    -0.21340
C2266       C  0.75953036  0.49933139  0.85663172    -0.07910
C2267       C  0.74845247  0.47548283  0.83799207     0.12960
C2268       C  0.74895709  0.47882350  0.80599588    -0.21390
C2269       C  0.76068488  0.50518626  0.79206526    -0.07910
C2270       C  0.77058215  0.52929707  0.81089638     0.12950
C2271       C  0.78166507  0.55919923  0.79863386    -0.24740
H2272       H  0.77812526  0.54478460  0.85621434     0.14240
H2273       H  0.74162265  0.46014857  0.79171535     0.14270
C2274       C  0.73640708  0.44641486  0.85147286    -0.24690
H2275       H  0.76910345  0.57807457  0.80977495     0.04480
H2276       H  0.77749099  0.56142905  0.77415244     0.07700
H2277       H  0.80633696  0.56178697  0.80325435     0.07700
H2278       H  0.71790400  0.45159029  0.86789752     0.07690
H2279       H  0.75493039  0.43396096  0.86316723     0.07690
H2280       H  0.72704282  0.43111738  0.83370208     0.04460
C2281       C  0.24682800  0.51667544  0.65521354    -0.21340
C2282       C  0.26035777  0.49170254  0.64059313    -0.07910
C2283       C  0.27173098  0.46753348  0.65879744     0.12960
C2284       C  0.27063158  0.46995905  0.69058306    -0.21390
C2285       C  0.25917447  0.49584588  0.70522624    -0.07910
C2286       C  0.24555954  0.51888834  0.68721849     0.12950
C2287       C  0.22940479  0.54576446  0.70091941    -0.24740
H2288       H  0.23749739  0.53482972  0.64143855     0.14240
H2289       H  0.28032758  0.45195024  0.70427565     0.14270
C2290       C  0.28703153  0.43981785  0.64549848    -0.24690
H2291       H  0.22576506  0.56401183  0.68385617     0.04480
H2292       H  0.24234340  0.55567611  0.71998512     0.07700
H2293       H  0.20667092  0.53857750  0.70897845     0.07700
H2294       H  0.30728853  0.44671043  0.63203167     0.07690
H2295       H  0.27077067  0.42710250  0.63101509     0.07690
H2296       H  0.29504538  0.42390731  0.66339337     0.04460
C2297       C  0.25176287  0.51967922  0.34259263    -0.21340
C2298       C  0.25688497  0.49158015  0.35696537    -0.07910
C2299       C  0.25857661  0.46510261  0.33850111     0.12960
C2300       C  0.25882299  0.46813677  0.30665130    -0.21390
C2301       C  0.25675727  0.49661042  0.29244968    -0.07910
C2302       C  0.25085794  0.52239588  0.31074950     0.12950
C2303       C  0.24330508  0.55302704  0.29779157    -0.24740
H2304       H  0.24899982  0.53998895  0.35628318     0.14240
H2305       H  0.26185763  0.44811280  0.29266223     0.14270
C2306       C  0.26128180  0.43357022  0.35163335    -0.24690
H2307       H  0.22211138  0.56166883  0.30849876     0.04480
H2308       H  0.23886241  0.55195561  0.27318963     0.07700
H2309       H  0.26205947  0.56924486  0.30247672     0.07700
H2310       H  0.24224005  0.42929951  0.36770726     0.07690
H2311       H  0.28343116  0.43089941  0.36335715     0.07690
H2312       H  0.26022908  0.41581594  0.33369360     0.04460
C2313       C  0.25138599  0.65201349  0.51727508    -0.21340
C2314       C  0.26073962  0.63541348  0.49151846    -0.07910
C2315       C  0.26973139  0.65179071  0.46504243     0.12960
C2316       C  0.27058248  0.68356821  0.46585063    -0.21390
C2317       C  0.26218299  0.70010260  0.49171322    -0.07910
C2318       C  0.25221937  0.68404669  0.51784081     0.12950
C2319       C  0.24399036  0.69964058  0.54720690    -0.24740
H2320       H  0.24466621  0.63989154  0.53768153     0.14240
H2321       H  0.27896084  0.69567352  0.44616988     0.14270
C2322       C  0.28017437  0.63660306  0.43601734    -0.24690
H2323       H  0.25859292  0.69085106  0.56581346     0.04480
H2324       H  0.21982869  0.69490736  0.55284809     0.07700
H2325       H  0.24723001  0.72453822  0.54623501     0.07700
H2326       H  0.26183220  0.62183346  0.42698109     0.07690
H2327       H  0.30112118  0.62319825  0.44026882     0.07690
H2328       H  0.28578098  0.65332538  0.41791447     0.04460
C2329       C  0.24869002  0.33784204  0.47591381    -0.21340
C2330       C  0.25746974  0.35280200  0.50276761    -0.07910
C2331       C  0.26325902  0.33500827  0.52914033     0.12960
C2332       C  0.26220608  0.30323490  0.52708941    -0.21390
C2333       C  0.25573437  0.28829275  0.49973792    -0.07910
C2334       C  0.24743924  0.30591259  0.47406389     0.12950
C2335       C  0.23712943  0.29172763  0.44465487    -0.24740
H2336       H  0.24345605  0.35124804  0.45591842     0.14240
H2337       H  0.26803809  0.28990002  0.54682951     0.14270
C2338       C  0.27233800  0.34863713  0.55931021    -0.24690
H2339       H  0.23516174  0.30885870  0.42620566     0.04480
H2340       H  0.21427728  0.28179759  0.44786214     0.07700
H2341       H  0.25302749  0.27395578  0.43677103     0.07700
H2342       H  0.25445605  0.36454376  0.56733549     0.07690
H2343       H  0.29447344  0.36057130  0.55707131     0.07690
H2344       H  0.27521424  0.33105690  0.57721511     0.04460
C2345       C  0.47732646  0.65042684  0.73413950    -0.21340
C2346       C  0.50353124  0.63564390  0.74475581    -0.07910
C2347       C  0.52781743  0.65360132  0.75589535     0.12960
C2348       C  0.52582621  0.68558992  0.75433078    -0.21390
C2349       C  0.50025727  0.70020986  0.74180274    -0.07910
C2350       C  0.47543164  0.68208501  0.73224907     0.12950
C2351       C  0.44658273  0.69486885  0.71915718    -0.24740
H2352       H  0.45834899  0.63719211  0.72568985     0.14240
H2353       H  0.54513683  0.69919996  0.76119700     0.14270
C2354       C  0.55596108  0.63937030  0.76914835    -0.24690
H2355       H  0.42678576  0.68631270  0.73233635     0.04480
H2356       H  0.44425218  0.68766229  0.69505429     0.07700
H2357       H  0.44573523  0.71970844  0.72015043     0.07700
H2358       H  0.56861330  0.62677275  0.75131760     0.07690
H2359       H  0.54953566  0.62364840  0.78785121     0.07690
H2360       H  0.57159288  0.65677359  0.77863696     0.04460
C2361       C  0.66030890  0.51802431  0.75983771    -0.21340
C2362       C  0.64691832  0.49207737  0.74689722    -0.07910
C2363       C  0.66619811  0.46835499  0.73642013     0.12960
C2364       C  0.69780467  0.47252456  0.73690061    -0.21390
C2365       C  0.71107240  0.49968508  0.74702499    -0.07910
C2366       C  0.69208998  0.52196994  0.76057936     0.12950
C2367       C  0.70451971  0.55041188  0.77496153    -0.24740
H2368       H  0.64571209  0.53583414  0.76862069     0.14240
H2369       H  0.71237442  0.45505528  0.72740772     0.14270
C2370       C  0.65416938  0.43935272  0.72261547    -0.24690
H2371       H  0.68652316  0.56783799  0.77810297     0.04480
H2372       H  0.72271159  0.56064997  0.76094919     0.07700
H2373       H  0.71343771  0.54493848  0.79782114     0.07700
H2374       H  0.64091333  0.44453710  0.70177766     0.07690
H2375       H  0.63976634  0.42717920  0.73942562     0.07690
H2376       H  0.67276153  0.42364786  0.71583485     0.04460
C2377       C  0.35002468  0.52376054  0.74268636    -0.21340
C2378       C  0.36493281  0.49587742  0.74732186    -0.07910
C2379       C  0.34698723  0.46986773  0.75406677     0.12960
C2380       C  0.31499686  0.47213500  0.75343600    -0.21390
C2381       C  0.30043403  0.49938289  0.74538497    -0.07910
C2382       C  0.31826230  0.52570118  0.74095067     0.12950
C2383       C  0.30415146  0.55582015  0.73313294    -0.24740
H2384       H  0.36327972  0.54401754  0.73819337     0.14240
H2385       H  0.30126324  0.45207491  0.75742911     0.14270
C2386       C  0.36104699  0.43951936  0.76135496    -0.24690
H2387       H  0.32128554  0.57434892  0.73237096     0.04480
H2388       H  0.28689241  0.56203471  0.75047958     0.07700
H2389       H  0.29369592  0.55446805  0.71027771     0.07700
H2390       H  0.37754302  0.44206474  0.78027241     0.07690
H2391       H  0.37261136  0.43012458  0.74097739     0.07690
H2392       H  0.34363690  0.42266444  0.76851426     0.04460
C2393       C  0.47805175  0.33782507  0.74884159    -0.21340
C2394       C  0.50607548  0.35322028  0.74772923    -0.07910
C2395       C  0.53317142  0.33576440  0.74964007     0.12960
C2396       C  0.53136320  0.30389501  0.74895600    -0.21390
C2397       C  0.50346844  0.28863996  0.74651743    -0.07910
C2398       C  0.47638009  0.30589060  0.74833701     0.12950
C2399       C  0.44558140  0.29111725  0.74971244    -0.24740
H2400       H  0.45714119  0.35082679  0.74868643     0.14240
H2401       H  0.55214405  0.29090216  0.74940509     0.14270
C2402       C  0.56429259  0.35003921  0.75162150    -0.24690
H2403       H  0.42716511  0.30810900  0.75282253     0.04480
H2404       H  0.44459902  0.27535675  0.76929833     0.07700
H2405       H  0.44077445  0.27889428  0.72836965     0.07700
H2406       H  0.56493966  0.36649746  0.77076094     0.07690
H2407       H  0.57009643  0.36152284  0.72990647     0.07690
H2408       H  0.58227719  0.33282118  0.75578634     0.04460
C2409       C  0.74294294  0.64647981  0.52756754    -0.21340
C2410       C  0.75181979  0.63291975  0.50000661    -0.07910
C2411       C  0.76181852  0.65204786  0.47600147     0.12960
C2412       C  0.76210825  0.68393557  0.48025414    -0.21390
C2413       C  0.75183681  0.69726525  0.50755255    -0.07910
C2414       C  0.74261844  0.67794411  0.53156831     0.12950
C2415       C  0.73306586  0.68951763  0.56230181    -0.24740
H2416       H  0.73529451  0.63247764  0.54636563     0.14240
H2417       H  0.76888267  0.69863487  0.46165415     0.14270
C2418       C  0.77170847  0.63923501  0.44581003    -0.24690
H2419       H  0.74523468  0.67679848  0.58039939     0.04480
H2420       H  0.70819240  0.68647657  0.56536854     0.07700
H2421       H  0.73923762  0.71344392  0.56544892     0.07700
H2422       H  0.75221225  0.62803096  0.43440777     0.07690
H2423       H  0.79030118  0.62254097  0.44926918     0.07690
H2424       H  0.78021946  0.65728943  0.43031475     0.04460
C2425       C  0.76120671  0.47752143  0.69053068    -0.21340
C2426       C  0.74894743  0.50389804  0.70392849    -0.07910
C2427       C  0.73835679  0.52741545  0.68467755     0.12960
C2428       C  0.74031550  0.52404525  0.65307646    -0.21390
C2429       C  0.75074908  0.49708701  0.63949795    -0.07910
C2430       C  0.76174154  0.47357906  0.65859770     0.12950
C2431       C  0.77379212  0.44428471  0.64563945    -0.24740
H2432       H  0.76891570  0.45929252  0.70518142     0.14240
H2433       H  0.73177644  0.54223456  0.63887017     0.14270
C2434       C  0.72455270  0.55627207  0.69693601    -0.24690
H2435       H  0.78303723  0.42925970  0.66369768     0.04480
H2436       H  0.79236721  0.44917060  0.62920859     0.07700
H2437       H  0.75529726  0.43167573  0.63405245     0.07700
H2438       H  0.74059202  0.56769524  0.71254282     0.07690
H2439       H  0.70291615  0.55116253  0.70872687     0.07690
H2440       H  0.71914316  0.57269721  0.67854254     0.04460
C2441       C  0.73821399  0.33363731  0.52821797    -0.21340
C2442       C  0.75051159  0.34854956  0.50275987    -0.07910
C2443       C  0.76353579  0.33079978  0.47919809     0.12960
C2444       C  0.76250561  0.29880437  0.48117240    -0.21390
C2445       C  0.74804550  0.28408961  0.50567685    -0.07910
C2446       C  0.73694107  0.30194228  0.53007455     0.12950
C2447       C  0.72436089  0.28849399  0.55900099    -0.24740
H2448       H  0.72859620  0.34676163  0.54675374     0.14240
H2449       H  0.77198426  0.28528731  0.46289644     0.14270
C2450       C  0.77838034  0.34528918  0.45190592    -0.24690
H2451       H  0.73599176  0.29885108  0.57887145     0.04480
H2452       H  0.72829984  0.26380118  0.56069543     0.07700
H2453       H  0.69961551  0.29322372  0.56062929     0.07700
H2454       H  0.79642864  0.36122101  0.45946009     0.07690
H2455       H  0.76123301  0.35772413  0.43826296     0.07690
H2456       H  0.78901631  0.32806470  0.43678125     0.04460
C2457       C  0.77062115  0.50503414  0.30896192    -0.21340
C2458       C  0.75381486  0.48194408  0.29446587    -0.07910
C2459       C  0.74263227  0.45752562  0.31213618     0.12960
C2460       C  0.74571093  0.45837396  0.34375496    -0.21390
C2461       C  0.75867043  0.48347691  0.35868017    -0.07910
C2462       C  0.77248053  0.50654216  0.34095763     0.12950
C2463       C  0.78822756  0.53322739  0.35548869    -0.24740
H2464       H  0.77953063  0.52361473  0.29547646     0.14240
H2465       H  0.73569730  0.44005294  0.35686102     0.14270
C2466       C  0.72649538  0.43045987  0.29863102    -0.24690
H2467       H  0.79924656  0.54803610  0.33821701     0.04480
H2468       H  0.80609564  0.52500751  0.37127518     0.07700
H2469       H  0.77160631  0.54737709  0.36813808     0.07700
H2470       H  0.73825759  0.40929135  0.30573199     0.07690
H2471       H  0.72619249  0.43064828  0.27348027     0.07690
H2472       H  0.70266295  0.42977619  0.30698328     0.04460
C2473       C  0.70081433  0.72967709  0.47539380    -0.21340
C2474       C  0.71328166  0.73979745  0.50301898    -0.07910
C2475       C  0.69343217  0.75339513  0.52467567     0.12960
C2476       C  0.66181438  0.75208490  0.51984912    -0.21390
C2477       C  0.64932567  0.73910480  0.49351306    -0.07910
C2478       C  0.66934104  0.72909633  0.47023903     0.12950
C2479       C  0.65816178  0.71593502  0.44061024    -0.24740
H2480       H  0.71589043  0.72060652  0.45812693     0.14240
H2481       H  0.64654970  0.76094797  0.53709072     0.14270
C2482       C  0.70439634  0.77044519  0.55227140    -0.24690
H2483       H  0.67721516  0.70962478  0.42522463     0.04480
H2484       H  0.64403230  0.73294709  0.42848251     0.07700
H2485       H  0.64479174  0.69497902  0.44498455     0.07700
H2486       H  0.71396740  0.79255545  0.54513562     0.07690
H2487       H  0.72144071  0.75766392  0.56520783     0.07690
H2488       H  0.68546169  0.77565086  0.56819994     0.04460
C2489       C  0.48918810  0.75555545  0.65033561    -0.21340
C2490       C  0.51312083  0.73959125  0.63647980    -0.07910
C2491       C  0.53524702  0.72559198  0.65531881     0.12960
C2492       C  0.53161246  0.72642157  0.68699367    -0.21390
C2493       C  0.50648136  0.74038300  0.70093337    -0.07910
C2494       C  0.48539772  0.75610483  0.68216887     0.12950
C2495       C  0.45771689  0.77227516  0.69407306    -0.24740
H2496       H  0.47229205  0.76641936  0.63607407     0.14240
H2497       H  0.54807768  0.71483983  0.70117342     0.14270
C2498       C  0.56180813  0.70787740  0.64267601    -0.24690
H2499       H  0.43706857  0.76321892  0.68273427     0.04480
H2500       H  0.45959037  0.79695345  0.68913763     0.07700
H2501       H  0.45446435  0.76918491  0.71868587     0.07700
H2502       H  0.57647268  0.72303248  0.62878295     0.07690
H2503       H  0.55347193  0.68858338  0.62869876     0.07690
H2504       H  0.57626096  0.69816822  0.66095481     0.04460
C2505       C  0.35215942  0.74908815  0.47193863    -0.21340
C2506       C  0.36635936  0.73973849  0.49898609    -0.07910
C2507       C  0.34774986  0.73285571  0.52458308     0.12960
C2508       C  0.31597430  0.73419097  0.52175123    -0.21390
C2509       C  0.30183506  0.74148818  0.49414119    -0.07910
C2510       C  0.32029239  0.75001195  0.46910370     0.12950
C2511       C  0.30700527  0.75966088  0.43911811    -0.24740
H2512       H  0.36614891  0.75479612  0.45243295     0.14240
H2513       H  0.30193954  0.72765318  0.54091458     0.14270
C2514       C  0.36056836  0.72212702  0.55453397    -0.24690
H2515       H  0.32475956  0.76194333  0.42125530     0.04480
H2516       H  0.29640684  0.78223727  0.44177492     0.07700
H2517       H  0.29002778  0.74306525  0.43087304     0.07700
H2518       H  0.37603623  0.73963758  0.56402226     0.07690
H2519       H  0.37287699  0.70032838  0.55130706     0.07690
H2520       H  0.34246598  0.71797782  0.57170933     0.04460
C2521       C  0.47867616  0.73174960  0.33818859    -0.21340
C2522       C  0.50557118  0.73925617  0.35368968    -0.07910
C2523       C  0.53113644  0.74870593  0.33635189     0.12960
C2524       C  0.52975169  0.74783936  0.30430607    -0.21390
C2525       C  0.50383323  0.73707010  0.28908397    -0.07910
C2526       C  0.47741069  0.73075575  0.30635920     0.12950
C2527       C  0.44731460  0.72296754  0.29213497    -0.24740
H2528       H  0.45852149  0.72540409  0.35091766     0.14240
H2529       H  0.54953047  0.75433414  0.29120907     0.14270
C2530       C  0.56008246  0.75936484  0.35120723    -0.24690
H2531       H  0.42945155  0.73829537  0.30130339     0.04480
H2532       H  0.44120437  0.69908656  0.29755774     0.07700
H2533       H  0.44739291  0.72609065  0.26726706     0.07700
H2534       H  0.57127784  0.74026400  0.36322926     0.07690
H2535       H  0.55497161  0.77796765  0.36750060     0.07690
H2536       H  0.57659527  0.76819563  0.33421010     0.04460
C2537       C  0.69496392  0.47036722  0.23605136    -0.21340
C2538       C  0.71047786  0.48977741  0.25634994    -0.07910
C2539       C  0.69313522  0.51174689  0.27258387     0.12960
C2540       C  0.66151666  0.51267771  0.26910482    -0.21390
C2541       C  0.64610028  0.49225840  0.25016508    -0.07910
C2542       C  0.66311293  0.47146887  0.23266297     0.12950
C2543       C  0.64778482  0.45066450  0.21024587    -0.24740
H2544       H  0.70743844  0.45326061  0.22374931     0.14240
H2545       H  0.64853263  0.52859017  0.28276051     0.14270
C2546       C  0.70715090  0.53431137  0.29420779    -0.24690
H2547       H  0.66455199  0.43672899  0.19746099     0.04480
H2548       H  0.63472939  0.46438545  0.19355776     0.07700
H2549       H  0.63211419  0.43497270  0.22227029     0.07700
H2550       H  0.72697519  0.54556800  0.28337553     0.07690
H2551       H  0.71369146  0.52273854  0.31559677     0.07690
H2552       H  0.69085501  0.55246873  0.30074651     0.04460
C2553       C  0.31214122  0.46737913  0.25209731    -0.21340
C2554       C  0.29856026  0.49623662  0.25242734    -0.07910
C2555       C  0.31742787  0.52216683  0.24983374     0.12960
C2556       C  0.34908110  0.51863920  0.24914641    -0.21390
C2557       C  0.36295297  0.48998371  0.25164601    -0.07910
C2558       C  0.34397974  0.46380132  0.25227021     0.12950
C2559       C  0.35659612  0.43202748  0.25434465    -0.24740
H2560       H  0.29770420  0.44747331  0.25323895     0.14240
H2561       H  0.36305833  0.53889583  0.24796000     0.14270
C2562       C  0.30539862  0.55410745  0.24831451    -0.24690
H2563       H  0.33838306  0.41458118  0.25304577     0.04480
H2564       H  0.36831577  0.42881364  0.27645193     0.07700
H2565       H  0.37260071  0.42786778  0.23523404     0.07700
H2566       H  0.31262837  0.56694157  0.26880788     0.07690
H2567       H  0.28048965  0.55492110  0.24659472     0.07690
H2568       H  0.31460553  0.56559076  0.22775578     0.04460
C2569       C  0.48223644  0.33262588  0.24022761    -0.21340
C2570       C  0.50687561  0.34754759  0.25405673    -0.07910
C2571       C  0.52979048  0.32971576  0.26811343     0.12960
C2572       C  0.52678385  0.29808325  0.26873344    -0.21390
C2573       C  0.50180463  0.28306919  0.25581314    -0.07910
C2574       C  0.47938792  0.30069959  0.24076494     0.12950
C2575       C  0.45165370  0.28725087  0.22601221    -0.24740
H2576       H  0.46451244  0.34607374  0.22965512     0.14240
H2577       H  0.54411317  0.28477907  0.28003548     0.14270
C2578       C  0.55681565  0.34339602  0.28424418    -0.24690
H2579       H  0.45141720  0.29333049  0.20149100     0.04480
H2580       H  0.45075808  0.26229976  0.22770792     0.07700
H2581       H  0.43088094  0.29650403  0.23702692     0.07700
H2582       H  0.54898777  0.35834290  0.30305614     0.07690
H2583       H  0.57093991  0.35643069  0.26785717     0.07690
H2584       H  0.57172036  0.32578110  0.29447490     0.04460
C2585       C  0.53291229  0.64706167  0.25459217    -0.21340
C2586       C  0.50599761  0.63127520  0.24764851    -0.07910
C2587       C  0.48038686  0.64827166  0.23789611     0.12960
C2588       C  0.48172111  0.68031402  0.23800962    -0.21390
C2589       C  0.50762597  0.69584840  0.24839621    -0.07910
C2590       C  0.53412936  0.67887415  0.25479089     0.12950
C2591       C  0.56426183  0.69349183  0.26171899    -0.24740
H2592       H  0.55315435  0.63460470  0.26102556     0.14240
H2593       H  0.46196151  0.69320361  0.23115029     0.14270
C2594       C  0.45147831  0.63305577  0.22766429    -0.24690
H2595       H  0.58201167  0.68386061  0.24651412     0.04480
H2596       H  0.57060215  0.68899734  0.28574286     0.07700
H2597       H  0.56405261  0.71821560  0.25759958     0.07700
H2598       H  0.44041602  0.62131979  0.24707700     0.07690
H2599       H  0.45660364  0.61647502  0.20931382     0.07690
H2600       H  0.43486533  0.64975857  0.21860879     0.04460
C2601       C  0.47787192  0.24208703  0.69036393    -0.21340
C2602       C  0.50523751  0.24725391  0.70587345    -0.07910
C2603       C  0.53255642  0.24788883  0.68884327     0.12960
C2604       C  0.53131797  0.24737712  0.65691047    -0.21390
C2605       C  0.50352963  0.24538104  0.64119666    -0.07910
C2606       C  0.47654235  0.24099939  0.65841710     0.12950
C2607       C  0.44605136  0.23569966  0.64371667    -0.24740
H2608       H  0.45710336  0.23966311  0.70324398     0.14240
H2609       H  0.55239588  0.24947832  0.64426633     0.14270
C2610       C  0.56344212  0.24888609  0.70336873    -0.24690
H2611       H  0.42830253  0.22987904  0.66077113     0.04480
H2612       H  0.44763269  0.21648266  0.62741613     0.07700
H2613       H  0.43831830  0.25655291  0.63187062     0.07700
H2614       H  0.56229410  0.24622687  0.72827211     0.07690
H2615       H  0.57484631  0.27070245  0.69776627     0.07690
H2616       H  0.57748394  0.22981781  0.69460000     0.04460
C2617       C  0.47433385  0.24531172  0.34453621    -0.21340
C2618       C  0.50225673  0.24097595  0.35948026    -0.07910
C2619       C  0.52816169  0.23334850  0.34171535     0.12960
C2620       C  0.52591537  0.23333232  0.30974629    -0.21390
C2621       C  0.49867250  0.24108504  0.29505685    -0.07910
C2622       C  0.47220911  0.24535422  0.31276502     0.12950
C2623       C  0.44135502  0.25042114  0.29899627    -0.24740
H2624       H  0.45396802  0.25009891  0.35760492     0.14240
H2625       H  0.54607580  0.22940443  0.29610310     0.14270
C2626       C  0.55844431  0.22602471  0.35589122    -0.24690
H2627       H  0.42486568  0.23410439  0.30900439     0.04480
H2628       H  0.44127004  0.24645880  0.27425062     0.07700
H2629       H  0.43359047  0.27394868  0.30379755     0.07700
H2630       H  0.55564454  0.20765800  0.37299118     0.07690
H2631       H  0.56819720  0.24655759  0.36676920     0.07690
H2632       H  0.57514564  0.21809429  0.33863462     0.04460
C2633       C  0.34611626  0.23944936  0.52150647    -0.21340
C2634       C  0.36168874  0.24960483  0.49546218    -0.07910
C2635       C  0.34436693  0.25808625  0.46951661     0.12960
C2636       C  0.31254899  0.25692566  0.47087006    -0.21390
C2637       C  0.29692310  0.24818113  0.49724371    -0.07910
C2638       C  0.31407320  0.23850581  0.52278483     0.12950
C2639       C  0.29928435  0.22728369  0.55158071    -0.24740
H2640       H  0.35914888  0.23273280  0.54128945     0.14240
H2641       H  0.29972266  0.26442169  0.45139788     0.14270
C2642       C  0.35856056  0.27030927  0.44068250    -0.24690
H2643       H  0.31609574  0.22439187  0.57017744     0.04480
H2644       H  0.28911413  0.20472398  0.54746159     0.07700
H2645       H  0.28166933  0.24322667  0.55975491     0.07700
H2646       H  0.37375885  0.25295073  0.43045765     0.07690
H2647       H  0.37140320  0.29145928  0.44567906     0.07690
H2648       H  0.34125137  0.27615047  0.42326411     0.04460
C2649       C  0.69247923  0.22933530  0.52453302    -0.21340
C2650       C  0.70894555  0.24184430  0.50014009    -0.07910
C2651       C  0.69313682  0.24959108  0.47328528     0.12960
C2652       C  0.66129004  0.24920143  0.47318309    -0.21390
C2653       C  0.64451700  0.24062884  0.49907776    -0.07910
C2654       C  0.66044629  0.22904649  0.52458333     0.12950
C2655       C  0.64406118  0.21681827  0.55212172    -0.24740
H2656       H  0.70455612  0.22141218  0.54439347     0.14240
H2657       H  0.64960230  0.25695223  0.45293392     0.14270
C2658       C  0.70916821  0.25827621  0.44425155    -0.24690
H2659       H  0.66008569  0.20647509  0.56865135     0.04480
H2660       H  0.62762929  0.19901494  0.54507315     0.07700
H2661       H  0.63194584  0.23538304  0.56413612     0.07700
H2662       H  0.73394305  0.25408655  0.44532375     0.07690
H2663       H  0.70493569  0.28261140  0.43909942     0.07690
H2664       H  0.70036680  0.24419292  0.42523699     0.04460
loop_ 
_geom_bond_atom_site_label_1 
_geom_bond_atom_site_label_2 
_geom_bond_distance 
_geom_bond_site_symmetry_2 
_ccdc_geom_bond_type 
N1            N2   1.318       .  A
N1            N7   1.313       .  A
N1          Mn30   2.183       .  S
N2            C9   1.349       .  A
N3            N5   1.320       .  A
N3            N4   1.322       .  A
N3          Mn19   2.214       .  S
N4           C10   1.353       .  A
N5            N6   1.320       .  A
N5          Mn30   2.208       .  S
N6           C10   1.353       .  A
N7            N8   1.319       .  A
N7          Mn19   2.189       .  S
N8            C9   1.351       .  A
C9          C144   1.455       .  S
C10        C2653   1.492       .  S
N11          N17   1.321       .  A
N11          N12   1.321       .  A
N11         Mn41   2.212       .  S
N12          C20   1.352       .  A
N13          N14   1.320       .  A
N13          N15   1.313       .  A
N13         Mn19   2.190       .  S
N14          C21   1.351       .  A
N15          N16   1.318       .  A
N15         Mn41   2.187       .  S
N16          C21   1.350       .  A
N17          N18   1.321       .  A
N17         Mn19   2.213       .  S
N18          C20   1.354       .  A
Mn19        Cl43   2.534       .  S
C20        C2605   1.496       .  S
C21         C201   1.457       .  S
N22          N23   1.322       .  A
N22          N28   1.318       .  A
N22         Mn30   2.209       .  S
N23          C31   1.354       .  A
N24          N26   1.312       .  A
N24          N25   1.318       .  A
N24         Mn42   2.184       .  S
N25          C32   1.350       .  A
N26          N27   1.320       .  A
N26         Mn30   2.187       .  S
N27          C32   1.351       .  A
N28          N29   1.319       .  A
N28         Mn42   2.205       .  S
N29          C31   1.353       .  A
Mn30        Cl43   2.546       .  S
C31        C2618   1.494       .  S
C32          C66   1.456       .  S
N33          N34   1.318       .  A
N33          N39   1.313       .  A
N33         Mn41   2.179       .  S
N34          C44   1.349       .  A
N35          N36   1.317       .  A
N35          N37   1.320       .  A
N35         Mn42   2.198       .  S
N36          C45   1.347       .  A
N37          N38   1.325       .  A
N37         Mn41   2.220       .  S
N38          C45   1.356       .  A
N39          N40   1.319       .  A
N39         Mn42   2.191       .  S
N40          C44   1.351       .  A
Mn41        Cl43   2.546       .  S
Mn42        Cl43   2.526       .  S
C44         C234   1.455       .  S
C45        C2634   1.496       .  S
N46          N47   1.321       .  A
N46          N52   1.313       .  A
N46         Mn75   2.202       .  S
N47          C54   1.353       .  A
N48          N50   1.320       .  A
N48          N49   1.323       .  A
N48         Mn64   2.214       .  S
N49          C55   1.354       .  A
N50          N51   1.319       .  A
N50         Mn75   2.205       .  S
N51          C55   1.351       .  A
N52          N53   1.320       .  A
N52         Mn64   2.187       .  S
N53          C54   1.350       .  A
C54         C156   1.464       .  S
C55        C2541   1.484       .  S
N56          N62   1.321       .  A
N56          N57   1.324       .  A
N56         Mn86   2.214       .  S
N57          C65   1.353       .  A
N58          N59   1.320       .  A
N58          N60   1.313       .  A
N58         Mn64   2.193       .  S
N59          C66   1.351       .  A
N60          N61   1.318       .  A
N60         Mn86   2.182       .  S
N61          C66   1.349       .  A
N62          N63   1.318       .  A
N62         Mn64   2.208       .  S
N63          C65   1.349       .  A
Mn64        Cl88   2.538       .  S
C65        C2570   1.491       .  S
N67          N68   1.320       .  A
N67          N73   1.320       .  A
N67         Mn75   2.212       .  S
N68          C76   1.353       .  A
N69          N71   1.313       .  A
N69          N70   1.319       .  A
N69         Mn87   2.185       .  S
N70          C77   1.349       .  A
N71          N72   1.319       .  A
N71         Mn75   2.189       .  S
N72          C77   1.351       .  A
N73          N74   1.323       .  A
N73         Mn87   2.212       .  S
N74          C76   1.354       .  A
Mn75        Cl88   2.534       .  S
C76        C2586   1.496       .  S
C77          C99   1.456       .  S
N78          N79   1.319       .  A
N78          N84   1.313       .  A
N78         Mn86   2.189       .  S
N79          C89   1.351       .  A
N80          N81   1.320       .  A
N80          N82   1.321       .  A
N80         Mn87   2.213       .  S
N81          C90   1.354       .  A
N82          N83   1.322       .  A
N82         Mn86   2.209       .  S
N83          C90   1.351       .  A
N84          N85   1.318       .  A
N84         Mn87   2.183       .  S
N85          C89   1.349       .  A
Mn86        Cl88   2.540       .  S
Mn87        Cl88   2.540       .  S
C89         C257   1.455       .  S
C90        C2557   1.497       .  S
N91          N92   1.318       .  A
N91          N97   1.313       .  A
N91        Mn120   2.179       .  S
N92          C99   1.349       .  A
N93          N95   1.320       .  A
N93          N94   1.321       .  A
N93        Mn109   2.213       .  S
N94         C100   1.354       .  A
N95          N96   1.322       .  A
N95        Mn120   2.211       .  S
N96         C100   1.352       .  A
N97          N98   1.320       .  A
N97        Mn109   2.194       .  S
N98          C99   1.352       .  A
C100       C2522   1.495       .  S
N101        N107   1.321       .  A
N101        N102   1.320       .  A
N101       Mn131   2.205       .  S
N102        C110   1.350       .  A
N103        N104   1.319       .  A
N103        N105   1.314       .  A
N103       Mn109   2.184       .  S
N104        C111   1.349       .  A
N105        N106   1.320       .  A
N105       Mn131   2.196       .  S
N106        C111   1.351       .  A
N107        N108   1.323       .  A
N107       Mn109   2.217       .  S
N108        C110   1.354       .  A
Mn109      Cl133   2.537       .  S
C110       C2506   1.496       .  S
C111        C269   1.458       .  S
N112        N113   1.321       .  A
N112        N118   1.320       .  A
N112       Mn120   2.206       .  S
N113        C121   1.352       .  A
N114        N116   1.313       .  A
N114        N115   1.317       .  A
N114       Mn132   2.181       .  S
N115        C122   1.349       .  A
N116        N117   1.320       .  A
N116       Mn120   2.188       .  S
N117        C122   1.351       .  A
N118        N119   1.321       .  A
N118       Mn132   2.209       .  S
N119        C121   1.352       .  A
Mn120      Cl133   2.542       .  S
C121       C2477   1.491       .  S
C122        C179   1.454       .  S
N123        N124   1.318       .  A
N123        N129   1.313       .  A
N123       Mn131   2.180       .  S
N124        C134   1.349       .  A
N125        N126   1.319       .  A
N125        N127   1.320       .  A
N125       Mn132   2.201       .  S
N126        C135   1.349       .  A
N127        N128   1.324       .  A
N127       Mn131   2.220       .  S
N128        C135   1.355       .  A
N129        N130   1.320       .  A
N129       Mn132   2.196       .  S
N130        C134   1.352       .  A
Mn131      Cl133   2.540       .  S
Mn132      Cl133   2.534       .  S
C134        C212   1.458       .  S
C135       C2490   1.491       .  S
N136        N137   1.318       .  A
N136        N142   1.314       .  A
N136       Mn165   2.189       .  S
N137        C144   1.349       .  A
N138        N140   1.320       .  A
N138        N139   1.323       .  A
N138       Mn154   2.213       .  S
N139        C145   1.353       .  A
N140        N141   1.319       .  A
N140       Mn165   2.205       .  S
N141        C145   1.352       .  A
N142        N143   1.319       .  A
N142       Mn154   2.187       .  S
N143        C144   1.351       .  A
C145       C2442   1.491       .  S
N146        N152   1.320       .  A
N146        N147   1.323       .  A
N146       Mn176   2.220       .  S
N147        C155   1.355       .  A
N148        N149   1.321       .  A
N148        N150   1.314       .  A
N148       Mn154   2.205       .  S
N149        C156   1.353       .  A
N150        N151   1.320       .  A
N150       Mn176   2.188       .  S
N151        C156   1.350       .  A
N152        N153   1.317       .  A
N152       Mn154   2.204       .  S
N153        C155   1.351       .  A
Mn154      Cl178   2.529       .  S
C155       C2461   1.488       .  S
N157        N158   1.325       .  A
N157        N163   1.319       .  A
N157       Mn165   2.217       .  S
N158        C166   1.355       .  A
N159        N161   1.312       .  A
N159        N160   1.320       .  A
N159       Mn177   2.194       .  S
N160        C167   1.352       .  A
N161        N162   1.318       .  A
N161       Mn165   2.180       .  S
N162        C167   1.350       .  A
N163        N164   1.318       .  A
N163       Mn177   2.206       .  S
N164        C166   1.352       .  A
Mn165      Cl178   2.548       .  S
C166       C2429   1.496       .  S
C167        C224   1.458       .  S
N168        N169   1.320       .  A
N168        N174   1.314       .  A
N168       Mn176   2.187       .  S
N169        C179   1.351       .  A
N170        N171   1.317       .  A
N170        N172   1.320       .  A
N170       Mn177   2.203       .  S
N171        C180   1.350       .  A
N172        N173   1.327       .  A
N172       Mn176   2.218       .  S
N173        C180   1.355       .  A
N174        N175   1.317       .  A
N174       Mn177   2.187       .  S
N175        C179   1.349       .  A
Mn176      Cl178   2.559       .  S
Mn177      Cl178   2.516       .  S
C180       C2410   1.497       .  S
N181        N182   1.319       .  A
N181        N187   1.313       .  A
N181       Mn210   2.188       .  S
N182        C189   1.350       .  A
N183        N185   1.320       .  A
N183        N184   1.323       .  A
N183       Mn199   2.211       .  S
N184        C190   1.353       .  A
N185        N186   1.320       .  A
N185       Mn210   2.214       .  S
N186        C190   1.354       .  A
N187        N188   1.319       .  A
N187       Mn199   2.188       .  S
N188        C189   1.350       .  A
C189        C246   1.457       .  S
C190       C2378   1.498       .  S
N191        N197   1.319       .  A
N191        N192   1.319       .  A
N191       Mn221   2.207       .  S
N192        C200   1.351       .  A
N193        N194   1.319       .  A
N193        N195   1.313       .  A
N193       Mn199   2.187       .  S
N194        C201   1.350       .  A
N195        N196   1.319       .  A
N195       Mn221   2.189       .  S
N196        C201   1.351       .  A
N197        N198   1.322       .  A
N197       Mn199   2.213       .  S
N198        C200   1.355       .  A
Mn199      Cl223   2.549       .  S
C200       C2394   1.497       .  S
N202        N203   1.318       .  A
N202        N208   1.320       .  A
N202       Mn210   2.207       .  S
N203        C211   1.352       .  A
N204        N206   1.313       .  A
N204        N205   1.319       .  A
N204       Mn222   2.183       .  S
N205        C212   1.350       .  A
N206        N207   1.320       .  A
N206       Mn210   2.197       .  S
N207        C212   1.352       .  A
N208        N209   1.324       .  A
N208       Mn222   2.217       .  S
N209        C211   1.354       .  A
Mn210      Cl223   2.527       .  S
C211       C2346   1.494       .  S
N213        N214   1.319       .  A
N213        N219   1.313       .  A
N213       Mn221   2.189       .  S
N214        C224   1.350       .  A
N215        N216   1.323       .  A
N215        N217   1.320       .  A
N215       Mn222   2.214       .  S
N216        C225   1.354       .  A
N217        N218   1.319       .  A
N217       Mn221   2.207       .  S
N218        C225   1.350       .  A
N219        N220   1.320       .  A
N219       Mn222   2.189       .  S
N220        C224   1.351       .  A
Mn221      Cl223   2.528       .  S
Mn222      Cl223   2.552       .  S
C225       C2362   1.492       .  S
N226        N227   1.318       .  A
N226        N232   1.312       .  A
N226       Mn255   2.178       .  S
N227        C234   1.349       .  A
N228        N230   1.319       .  A
N228        N229   1.318       .  A
N228       Mn244   2.199       .  S
N229        C235   1.349       .  A
N230        N231   1.323       .  A
N230       Mn255   2.211       .  S
N231        C235   1.355       .  A
N232        N233   1.319       .  A
N232       Mn244   2.191       .  S
N233        C234   1.351       .  A
C235       C2330   1.494       .  S
N236        N242   1.321       .  A
N236        N237   1.325       .  A
N236       Mn266   2.222       .  S
N237        C245   1.356       .  A
N238        N239   1.318       .  A
N238        N240   1.313       .  A
N238       Mn244   2.186       .  S
N239        C246   1.350       .  A
N240        N241   1.320       .  A
N240       Mn266   2.190       .  S
N241        C246   1.351       .  A
N242        N243   1.317       .  A
N242       Mn244   2.200       .  S
N243        C245   1.347       .  A
Mn244      Cl268   2.517       .  S
C245       C2282   1.494       .  S
N247        N248   1.321       .  A
N247        N253   1.319       .  A
N247       Mn255   2.206       .  S
N248        C256   1.352       .  A
N249        N251   1.313       .  A
N249        N250   1.319       .  A
N249       Mn267   2.188       .  S
N250        C257   1.351       .  A
N251        N252   1.318       .  A
N251       Mn255   2.184       .  S
N252        C257   1.349       .  A
N253        N254   1.322       .  A
N253       Mn267   2.212       .  S
N254        C256   1.354       .  A
Mn255      Cl268   2.550       .  S
C256       C2298   1.497       .  S
N258        N259   1.319       .  A
N258        N264   1.314       .  A
N258       Mn266   2.183       .  S
N259        C269   1.349       .  A
N260        N261   1.316       .  A
N260        N262   1.321       .  A
N260       Mn267   2.203       .  S
N261        C270   1.347       .  A
N262        N263   1.326       .  A
N262       Mn266   2.223       .  S
N263        C270   1.357       .  A
N264        N265   1.320       .  A
N264       Mn267   2.198       .  S
N265        C269   1.352       .  A
Mn266      Cl268   2.558       .  S
Mn267      Cl268   2.521       .  S
C270       C2314   1.496       .  S
N271        N272   1.318       .  A
N271        N277   1.313   1_554  A
N271       Mn300   2.182       .  S
N272        C279   1.349   1_554  A
N273        N275   1.320   1_556  A
N273        N274   1.321       .  A
N273       Mn289   2.207       .  S
N274        C280   1.350       .  A
N275        N276   1.322       .  A
N275       Mn300   2.217       .  S
N276        C280   1.355   1_554  A
N277        N278   1.319       .  A
N277       Mn289   2.188       .  S
N278        C279   1.351       .  A
C279        C504   1.454       .  S
C280       C2234   1.497       .  S
N281        N287   1.321       .  A
N281        N282   1.325       .  A
N281       Mn311   2.218       .  S
N282        C290   1.355       .  A
N283        N284   1.319       .  A
N283        N285   1.313       .  A
N283       Mn289   2.190       .  S
N284        C291   1.350       .  A
N285        N286   1.320       .  A
N285       Mn311   2.191       .  S
N286        C291   1.351       .  A
N287        N288   1.318       .  A
N287       Mn289   2.209       .  S
N288        C290   1.351       .  A
Mn289      Cl313   2.524       .  S
C290       C2266   1.496       .  S
C291        C336   1.460       .  S
N292        N293   1.324       .  A
N292        N298   1.320       .  A
N292       Mn300   2.214       .  S
N293        C301   1.354       .  A
N294        N296   1.313       .  A
N294        N295   1.320       .  A
N294       Mn312   2.189       .  S
N295        C302   1.351       .  A
N296        N297   1.319       .  A
N296       Mn300   2.188       .  S
N297        C302   1.351       .  A
N298        N299   1.319       .  A
N298       Mn312   2.211       .  S
N299        C301   1.353       .  A
Mn300      Cl313   2.553   1_554  S
C301       C2250   1.500       .  S
C302        C426   1.458       .  S
N303        N304   1.318       .  A
N303        N309   1.313   1_556  A
N303       Mn311   2.181       .  S
N304        C314   1.349       .  A
N305        N306   1.318       .  A
N305        N307   1.321   1_554  A
N305       Mn312   2.207       .  S
N306        C315   1.348       .  A
N307        N308   1.326       .  A
N307       Mn311   2.224       .  S
N308        C315   1.356   1_556  A
N309        N310   1.320       .  A
N309       Mn312   2.194       .  S
N310        C314   1.351   1_554  A
Mn311      Cl313   2.558       .  S
Mn312      Cl313   2.522   1_554  S
C314        C459   1.457       .  S
C315       C2218   1.495       .  S
N316        N317   1.318       .  A
N316        N322   1.313   1_455  A
N316       Mn345   2.185       .  S
N317        C324   1.350       .  A
N318        N320   1.320   1_655  A
N318        N319   1.323       .  A
N318       Mn334   2.213       .  S
N319        C325   1.353   1_655  A
N320        N321   1.319       .  A
N320       Mn345   2.206       .  S
N321        C325   1.353       .  A
N322        N323   1.318       .  A
N322       Mn334   2.182       .  S
N323        C324   1.350   1_655  A
C324        C471   1.453       .  S
C325       C2170   1.492       .  S
N326        N332   1.322       .  A
N326        N327   1.324       .  A
N326       Mn356   2.220       .  S
N327        C335   1.354       .  A
N328        N329   1.320       .  A
N328        N330   1.314       .  A
N328       Mn334   2.193       .  S
N329        C336   1.351       .  A
N330        N331   1.319       .  A
N330       Mn356   2.190       .  S
N331        C336   1.351       .  A
N332        N333   1.319       .  A
N332       Mn334   2.206       .  S
N333        C335   1.349       .  A
Mn334      Cl358   2.532   1_655  S
C335       C2205   1.492       .  S
N337        N338   1.324       .  A
N337        N343   1.319       .  A
N337       Mn345   2.210       .  S
N338        C346   1.354       .  A
N339        N341   1.312       .  A
N339        N340   1.318       .  A
N339       Mn357   2.183       .  S
N340        C347   1.350       .  A
N341        N342   1.319       .  A
N341       Mn345   2.185       .  S
N342        C347   1.351       .  A
N343        N344   1.318       .  A
N343       Mn357   2.206       .  S
N344        C346   1.352       .  A
Mn345      Cl358   2.544       .  S
C346       C2154   1.492       .  S
C347        C381   1.455       .  S
N348        N349   1.319       .  A
N348        N354   1.313   1_655  A
N348       Mn356   2.187       .  S
N349        C359   1.350   1_655  A
N350        N351   1.318       .  A
N350        N352   1.321   1_455  A
N350       Mn357   2.196       .  S
N351        C360   1.347       .  A
N352        N353   1.324       .  A
N352       Mn356   2.221       .  S
N353        C360   1.355   1_655  A
N354        N355   1.319       .  A
N354       Mn357   2.187       .  S
N355        C359   1.350       .  A
Mn356      Cl358   2.548   1_655  S
Mn357      Cl358   2.523       .  S
C359        C527   1.455       .  S
C360       C2189   1.489       .  S
N361        N362   1.318       .  A
N361        N367   1.313   1_554  A
N361       Mn390   2.181       .  S
N362        C369   1.349   1_554  A
N363        N365   1.320   1_556  A
N363        N364   1.318       .  A
N363       Mn379   2.205       .  S
N364        C370   1.352       .  A
N365        N366   1.324       .  A
N365       Mn390   2.214       .  S
N366        C370   1.354   1_554  A
N367        N368   1.320       .  A
N367       Mn379   2.195       .  S
N368        C369   1.352       .  A
C369        C494   1.457       .  S
C370       C2138   1.492       .  S
N371        N377   1.320       .  A
N371        N372   1.322       .  A
N371       Mn401   2.213       .  S
N372        C380   1.353       .  A
N373        N374   1.318       .  A
N373        N375   1.313       .  A
N373       Mn379   2.182       .  S
N374        C381   1.349       .  A
N375        N376   1.319       .  A
N375       Mn401   2.189       .  S
N376        C381   1.351       .  A
N377        N378   1.321       .  A
N377       Mn379   2.212       .  S
N378        C380   1.354       .  A
Mn379      Cl403   2.529       .  S
C380       C2090   1.495       .  S
N382        N383   1.321       .  A
N382        N388   1.320       .  A
N382       Mn390   2.207       .  S
N383        C391   1.353       .  A
N384        N386   1.313       .  A
N384        N385   1.318       .  A
N384       Mn402   2.183       .  S
N385        C392   1.350       .  A
N386        N387   1.319       .  A
N386       Mn390   2.189       .  S
N387        C392   1.350       .  A
N388        N389   1.321       .  A
N388       Mn402   2.214       .  S
N389        C391   1.352       .  A
Mn390      Cl403   2.548   1_554  S
C391       C2106   1.491       .  S
C392        C437   1.455       .  S
N393        N394   1.319       .  A
N393        N399   1.314   1_556  A
N393       Mn401   2.186       .  S
N394        C404   1.350       .  A
N395        N396   1.319       .  A
N395        N397   1.320   1_554  A
N395       Mn402   2.205       .  S
N396        C405   1.350       .  A
N397        N398   1.323       .  A
N397       Mn401   2.214       .  S
N398        C405   1.355   1_556  A
N399        N400   1.320       .  A
N399       Mn402   2.197       .  S
N400        C404   1.352   1_554  A
Mn401      Cl403   2.546       .  S
Mn402      Cl403   2.531   1_554  S
C404        C539   1.460       .  S
C405       C2125   1.496       .  S
N406        N407   1.318       .  A
N406        N412   1.312   1_455  A
N406       Mn435   2.182       .  S
N407        C414   1.349       .  A
N408        N410   1.319   1_655  A
N408        N409   1.324       .  A
N408       Mn424   2.215       .  S
N409        C415   1.356   1_655  A
N410        N411   1.317       .  A
N410       Mn435   2.196       .  S
N411        C415   1.348       .  A
N412        N413   1.318       .  A
N412       Mn424   2.185       .  S
N413        C414   1.351   1_655  A
C414        C516   1.454       .  S
C415       C2058   1.495       .  S
N416        N422   1.321       .  A
N416        N417   1.322       .  A
N416       Mn446   2.215       .  S
N417        C425   1.354       .  A
N418        N419   1.319       .  A
N418        N420   1.314       .  A
N418       Mn424   2.188       .  S
N419        C426   1.350       .  A
N420        N421   1.320       .  A
N420       Mn446   2.194       .  S
N421        C426   1.351       .  A
N422        N423   1.320       .  A
N422       Mn424   2.208       .  S
N423        C425   1.350       .  A
Mn424      Cl448   2.541   1_655  S
C425       C2026   1.494       .  S
N427        N428   1.317       .  A
N427        N433   1.318       .  A
N427       Mn435   2.195       .  S
N428        C436   1.350       .  A
N429        N431   1.312       .  A
N429        N430   1.318       .  A
N429       Mn447   2.181       .  S
N430        C437   1.350       .  A
N431        N432   1.318       .  A
N431       Mn435   2.187       .  S
N432        C437   1.350       .  A
N433        N434   1.324       .  A
N433       Mn447   2.216       .  S
N434        C436   1.355       .  A
Mn435      Cl448   2.525       .  S
C436       C2042   1.490       .  S
N438        N439   1.319       .  A
N438        N444   1.314   1_655  A
N438       Mn446   2.186       .  S
N439        C449   1.350   1_655  A
N440        N441   1.317       .  A
N440        N442   1.321   1_455  A
N440       Mn447   2.202       .  S
N441        C450   1.348       .  A
N442        N443   1.325       .  A
N442       Mn446   2.222       .  S
N443        C450   1.356   1_655  A
N444        N445   1.320       .  A
N444       Mn447   2.195       .  S
N445        C449   1.351       .  A
Mn446      Cl448   2.541   1_655  S
Mn447      Cl448   2.538       .  S
C449        C482   1.458       .  S
C450       C2077   1.497       .  S
N451        N452   1.319       .  A
N451        N457   1.312   1_554  A
N451       Mn480   2.183       .  S
N452        C459   1.350   1_554  A
N453        N455   1.318   1_556  A
N453        N454   1.321       .  A
N453       Mn469   2.209       .  S
N454        C460   1.355       .  A
N455        N456   1.321       .  A
N455       Mn480   2.205       .  S
N456        C460   1.352   1_554  A
N457        N458   1.319       .  A
N457       Mn469   2.190       .  S
N458        C459   1.351       .  A
C460       C1962   1.496       .  S
N461        N467   1.320   1_455  A
N461        N462   1.322       .  A
N461       Mn491   2.210       .  S
N462        C470   1.353       .  A
N463        N464   1.318       .  A
N463        N465   1.313   1_655  A
N463       Mn469   2.185       .  S
N464        C471   1.350   1_655  A
N465        N466   1.318       .  A
N465       Mn491   2.183       .  S
N466        C471   1.349       .  A
N467        N468   1.319       .  A
N467       Mn469   2.208       .  S
N468        C470   1.353   1_655  A
Mn469      Cl493   2.539   1_655  S
C470       C1978   1.490       .  S
N472        N473   1.316       .  A
N472        N478   1.320   1_655  A
N472       Mn480   2.195       .  S
N473        C481   1.347   1_655  A
N474        N476   1.314   1_455  A
N474        N475   1.320       .  A
N474       Mn492   2.189       .  S
N475        C482   1.351       .  A
N476        N477   1.319       .  A
N476       Mn480   2.191       .  S
N477        C482   1.350   1_655  A
N478        N479   1.323       .  A
N478       Mn492   2.214       .  S
N479        C481   1.355       .  A
Mn480      Cl493   2.530   1_654  S
C481       C2013   1.490   1_455  S
N483        N484   1.319       .  A
N483        N489   1.313   1_556  A
N483       Mn491   2.188       .  S
N484        C494   1.350       .  A
N485        N486   1.322       .  A
N485        N487   1.320   1_554  A
N485       Mn492   2.217       .  S
N486        C495   1.355   1_554  A
N487        N488   1.320       .  A
N487       Mn491   2.207       .  S
N488        C495   1.351       .  A
N489        N490   1.319       .  A
N489       Mn492   2.189       .  S
N490        C494   1.351   1_554  A
Mn491      Cl493   2.534       .  S
Mn492      Cl493   2.544   1_554  S
C495       C1994   1.496       .  S
N496        N497   1.318       .  A
N496        N502   1.312   1_556  A
N496       Mn525   2.179       .  S
N497        C504   1.349       .  A
N498        N500   1.318   1_554  A
N498        N499   1.321       .  A
N498       Mn514   2.200       .  S
N499        C505   1.351       .  A
N500        N501   1.321       .  A
N500       Mn525   2.210       .  S
N501        C505   1.355   1_556  A
N502        N503   1.319       .  A
N502       Mn514   2.185       .  S
N503        C504   1.351   1_554  A
C505       C1898   1.496       .  S
N506        N512   1.321   1_455  A
N506        N507   1.325       .  A
N506       Mn536   2.221       .  S
N507        C515   1.356       .  A
N508        N509   1.318       .  A
N508        N510   1.313   1_655  A
N508       Mn514   2.181       .  S
N509        C516   1.349   1_655  A
N510        N511   1.319       .  A
N510       Mn536   2.187       .  S
N511        C516   1.351       .  A
N512        N513   1.316       .  A
N512       Mn514   2.199       .  S
N513        C515   1.347   1_655  A
Mn514      Cl538   2.525   1_654  S
C515       C1946   1.494       .  S
N517        N518   1.319       .  A
N517        N523   1.319   1_655  A
N517       Mn525   2.200       .  S
N518        C526   1.352   1_655  A
N519        N521   1.313   1_455  A
N519        N520   1.319       .  A
N519       Mn537   2.183       .  S
N520        C527   1.350       .  A
N521        N522   1.319       .  A
N521       Mn525   2.188       .  S
N522        C527   1.350   1_655  A
N523        N524   1.323       .  A
N523       Mn537   2.216       .  S
N524        C526   1.354       .  A
Mn525      Cl538   2.542   1_655  S
C526       C1933   1.493       .  S
N528        N529   1.319       .  A
N528        N534   1.314   1_554  A
N528       Mn536   2.183       .  S
N529        C539   1.349   1_554  A
N530        N531   1.316       .  A
N530        N532   1.322   1_556  A
N530       Mn537   2.204       .  S
N531        C540   1.347       .  A
N532        N533   1.326       .  A
N532       Mn536   2.222       .  S
N533        C540   1.355   1_554  A
N534        N535   1.321       .  A
N534       Mn537   2.201       .  S
N535        C539   1.352       .  A
Mn536      Cl538   2.552   1_554  S
Mn537      Cl538   2.526       .  S
C540       C1914   1.494       .  S
N541        N542   1.319       .  A
N541        N547   1.313       .  A
N541       Mn570   2.187       .  S
N542        C549   1.350       .  A
N543        N545   1.319       .  A
N543        N544   1.320       .  A
N543       Mn559   2.208       .  S
N544        C550   1.352       .  A
N545        N546   1.323       .  A
N545       Mn570   2.212       .  S
N546        C550   1.355       .  A
N547        N548   1.319       .  A
N547       Mn559   2.190       .  S
N548        C549   1.351       .  A
C549        C606   1.457       .  S
C550       C1882   1.499       .  S
N551        N557   1.320   1_554  A
N551        N552   1.322       .  A
N551       Mn581   2.211       .  S
N552        C560   1.353   1_554  A
N553        N554   1.319       .  A
N553        N555   1.314   1_556  A
N553       Mn559   2.189       .  S
N554        C561   1.350       .  A
N555        N556   1.319       .  A
N555       Mn581   2.191       .  S
N556        C561   1.351   1_554  A
N557        N558   1.319       .  A
N557       Mn559   2.207       .  S
N558        C560   1.352       .  A
Mn559      Cl583   2.533       .  S
C560       C1850   1.489       .  S
C561        C786   1.458       .  S
N562        N563   1.318       .  A
N562        N568   1.320   1_556  A
N562       Mn570   2.207       .  S
N563        C571   1.353       .  A
N564        N566   1.313   1_554  A
N564        N565   1.320       .  A
N564       Mn582   2.187       .  S
N565        C572   1.350   1_554  A
N566        N567   1.319       .  A
N566       Mn570   2.193       .  S
N567        C572   1.351       .  A
N568        N569   1.323       .  A
N568       Mn582   2.209       .  S
N569        C571   1.353   1_554  A
Mn570      Cl583   2.538       .  S
C571       C1834   1.493       .  S
C572        C729   1.458       .  S
N573        N574   1.319       .  A
N573        N579   1.314       .  A
N573       Mn581   2.186       .  S
N574        C584   1.350       .  A
N575        N576   1.319       .  A
N575        N577   1.320       .  A
N575       Mn582   2.209       .  S
N576        C585   1.353       .  A
N577        N578   1.323       .  A
N577       Mn581   2.214       .  S
N578        C585   1.354       .  A
N579        N580   1.319       .  A
N579       Mn582   2.189       .  S
N580        C584   1.350       .  A
Mn581      Cl583   2.544   1_554  S
Mn582      Cl583   2.538   1_554  S
C584        C684   1.456       .  S
C585       C1866   1.494       .  S
N586        N587   1.318       .  A
N586        N592   1.313   1_545  A
N586       Mn615   2.177       .  S
N587        C594   1.348   1_545  A
N588        N590   1.320   1_565  A
N588        N589   1.317       .  A
N588       Mn604   2.203       .  S
N589        C595   1.351       .  A
N590        N591   1.324       .  A
N590       Mn615   2.214       .  S
N591        C595   1.354   1_545  A
N592        N593   1.320       .  A
N592       Mn604   2.201       .  S
N593        C594   1.352       .  A
C594        C809   1.457       .  S
C595       C1770   1.491       .  S
N596        N602   1.320       .  A
N596        N597   1.317       .  A
N596       Mn626   2.201       .  S
N597        C605   1.348       .  A
N598        N599   1.318       .  A
N598        N600   1.313       .  A
N598       Mn604   2.179       .  S
N599        C606   1.349       .  A
N600        N601   1.320       .  A
N600       Mn626   2.198       .  S
N601        C606   1.352       .  A
N602        N603   1.325       .  A
N602       Mn604   2.218       .  S
N603        C605   1.356       .  A
Mn604      Cl628   2.537       .  S
C605       C1818   1.497       .  S
N607        N608   1.320       .  A
N607        N613   1.320       .  A
N607       Mn615   2.205       .  S
N608        C616   1.353       .  A
N609        N611   1.313       .  A
N609        N610   1.317       .  A
N609       Mn627   2.177       .  S
N610        C617   1.348       .  A
N611        N612   1.320       .  A
N611       Mn615   2.194       .  S
N612        C617   1.352       .  A
N613        N614   1.322       .  A
N613       Mn627   2.213       .  S
N614        C616   1.353       .  A
Mn615      Cl628   2.541   1_545  S
C616       C1802   1.490       .  S
C617        C639   1.455       .  S
N618        N619   1.318       .  A
N618        N624   1.313   1_565  A
N618       Mn626   2.177       .  S
N619        C629   1.348       .  A
N620        N621   1.319       .  A
N620        N622   1.319   1_545  A
N620       Mn627   2.200       .  S
N621        C630   1.350   1_545  A
N622        N623   1.323       .  A
N622       Mn626   2.215       .  S
N623        C630   1.356       .  A
N624        N625   1.320       .  A
N624       Mn627   2.198       .  S
N625        C629   1.353   1_545  A
Mn626      Cl628   2.533       .  S
Mn627      Cl628   2.535   1_545  S
C629        C752   1.457       .  S
C630       C1789   1.497       .  S
N631        N632   1.319       .  A
N631        N637   1.313       .  A
N631       Mn660   2.180       .  S
N632        C639   1.350       .  A
N633        N635   1.320       .  A
N633        N634   1.320       .  A
N633       Mn649   2.203       .  S
N634        C640   1.352       .  A
N635        N636   1.323       .  A
N635       Mn660   2.217       .  S
N636        C640   1.354       .  A
N637        N638   1.318       .  A
N637       Mn649   2.190       .  S
N638        C639   1.351       .  A
C640       C1738   1.492       .  S
N641        N647   1.319   1_554  A
N641        N642   1.320       .  A
N641       Mn671   2.202       .  S
N642        C650   1.350       .  A
N643        N644   1.318       .  A
N643        N645   1.313   1_556  A
N643       Mn649   2.178       .  S
N644        C651   1.349       .  A
N645        N646   1.318       .  A
N645       Mn671   2.188       .  S
N646        C651   1.351   1_554  A
N647        N648   1.322       .  A
N647       Mn649   2.213       .  S
N648        C650   1.355   1_556  A
Mn649      Cl673   2.541       .  S
C650       C1722   1.496       .  S
C651        C764   1.453       .  S
N652        N653   1.317       .  A
N652        N658   1.321   1_556  A
N652       Mn660   2.201       .  S
N653        C661   1.348       .  A
N654        N656   1.314   1_554  A
N654        N655   1.318       .  A
N654       Mn672   2.182       .  S
N655        C662   1.349   1_554  A
N656        N657   1.320       .  A
N656       Mn660   2.200       .  S
N657        C662   1.352       .  A
N658        N659   1.325       .  A
N658       Mn672   2.226       .  S
N659        C661   1.356   1_554  A
Mn660      Cl673   2.529       .  S
C661       C1706   1.492       .  S
C662        C797   1.459       .  S
N663        N664   1.319       .  A
N663        N669   1.313       .  A
N663       Mn671   2.186       .  S
N664        C674   1.349       .  A
N665        N666   1.324       .  A
N665        N667   1.321       .  A
N665       Mn672   2.217       .  S
N666        C675   1.354       .  A
N667        N668   1.317       .  A
N667       Mn671   2.202       .  S
N668        C675   1.348       .  A
N669        N670   1.321       .  A
N669       Mn672   2.198       .  S
N670        C674   1.353       .  A
Mn671      Cl673   2.525   1_554  S
Mn672      Cl673   2.553   1_554  S
C674        C719   1.461       .  S
C675       C1754   1.490       .  S
N676        N677   1.319       .  A
N676        N682   1.313       .  A
N676       Mn705   2.185       .  S
N677        C684   1.350       .  A
N678        N680   1.321       .  A
N678        N679   1.320       .  A
N678       Mn694   2.213       .  S
N679        C685   1.354       .  A
N680        N681   1.323       .  A
N680       Mn705   2.218       .  S
N681        C685   1.353       .  A
N682        N683   1.319       .  A
N682       Mn694   2.189       .  S
N683        C684   1.350       .  A
C685       C1658   1.496       .  S
N686        N692   1.320   1_545  A
N686        N687   1.317       .  A
N686       Mn716   2.203       .  S
N687        C695   1.348   1_545  A
N688        N689   1.319       .  A
N688        N690   1.313   1_565  A
N688       Mn694   2.182       .  S
N689        C696   1.350       .  A
N690        N691   1.319       .  A
N690       Mn716   2.190       .  S
N691        C696   1.351   1_545  A
N692        N693   1.325       .  A
N692       Mn694   2.215       .  S
N693        C695   1.355       .  A
Mn694      Cl718   2.546       .  S
C695       C1690   1.495       .  S
C696        C774   1.456       .  S
N697        N698   1.321       .  A
N697        N703   1.321   1_565  A
N697       Mn705   2.210       .  S
N698        C706   1.353       .  A
N699        N701   1.314   1_545  A
N699        N700   1.319       .  A
N699       Mn717   2.184       .  S
N700        C707   1.349   1_545  A
N701        N702   1.319       .  A
N701       Mn705   2.193       .  S
N702        C707   1.351       .  A
N703        N704   1.320       .  A
N703       Mn717   2.212       .  S
N704        C706   1.352   1_545  A
Mn705      Cl718   2.536       .  S
C706       C1674   1.490       .  S
C707        C741   1.456       .  S
N708        N709   1.320       .  A
N708        N714   1.313       .  A
N708       Mn716   2.188       .  S
N709        C719   1.351       .  A
N710        N711   1.323       .  A
N710        N712   1.319       .  A
N710       Mn717   2.210       .  S
N711        C720   1.354       .  A
N712        N713   1.319       .  A
N712       Mn716   2.205       .  S
N713        C720   1.353       .  A
N714        N715   1.320       .  A
N714       Mn717   2.193       .  S
N715        C719   1.352       .  A
Mn716      Cl718   2.527   1_545  S
Mn717      Cl718   2.544   1_545  S
C720       C1642   1.494       .  S
N721        N722   1.318       .  A
N721        N727   1.314   1_556  A
N721       Mn750   2.184       .  S
N722        C729   1.350       .  A
N723        N725   1.321   1_554  A
N723        N724   1.318       .  A
N723       Mn739   2.203       .  S
N724        C730   1.349   1_554  A
N725        N726   1.324       .  A
N725       Mn750   2.221       .  S
N726        C730   1.354       .  A
N727        N728   1.320       .  A
N727       Mn739   2.198       .  S
N728        C729   1.352   1_554  A
C730       C1578   1.491       .  S
N731        N737   1.319   1_545  A
N731        N732   1.317       .  A
N731       Mn761   2.195       .  S
N732        C740   1.350   1_545  A
N733        N734   1.318       .  A
N733        N735   1.313   1_565  A
N733       Mn739   2.179       .  S
N734        C741   1.349       .  A
N735        N736   1.320       .  A
N735       Mn761   2.194       .  S
N736        C741   1.351   1_545  A
N737        N738   1.324       .  A
N737       Mn739   2.218       .  S
N738        C740   1.355       .  A
Mn739      Cl763   2.538   1_554  S
C740       C1626   1.489       .  S
N742        N743   1.320       .  A
N742        N748   1.320   1_565  A
N742       Mn750   2.210       .  S
N743        C751   1.352       .  A
N744        N746   1.314   1_545  A
N744        N745   1.318       .  A
N744       Mn762   2.179       .  S
N745        C752   1.348   1_545  A
N746        N747   1.320       .  A
N746       Mn750   2.199       .  S
N747        C752   1.352       .  A
N748        N749   1.322       .  A
N748       Mn762   2.211       .  S
N749        C751   1.354   1_545  A
Mn750      Cl763   2.539       .  S
C751       C1610   1.497       .  S
N753        N754   1.318       .  A
N753        N759   1.313   1_554  A
N753       Mn761   2.176       .  S
N754        C764   1.349   1_554  A
N755        N756   1.321       .  A
N755        N757   1.319   1_556  A
N755       Mn762   2.208       .  S
N756        C765   1.354       .  A
N757        N758   1.321       .  A
N757       Mn761   2.206       .  S
N758        C765   1.352   1_554  A
N759        N760   1.319       .  A
N759       Mn762   2.190       .  S
N760        C764   1.351       .  A
Mn761      Cl763   2.532   1_544  S
Mn762      Cl763   2.538   1_545  S
C765       C1594   1.497       .  S
N766        N767   1.319       .  A
N766        N772   1.313   1_545  A
N766       Mn795   2.184       .  S
N767        C774   1.350   1_545  A
N768        N770   1.319   1_565  A
N768        N769   1.318       .  A
N768       Mn784   2.198       .  S
N769        C775   1.348       .  A
N770        N771   1.324       .  A
N770       Mn795   2.218       .  S
N771        C775   1.356   1_545  A
N772        N773   1.319       .  A
N772       Mn784   2.191       .  S
N773        C774   1.350       .  A
C775       C1562   1.495       .  S
N776        N782   1.319   1_556  A
N776        N777   1.324       .  A
N776       Mn806   2.214       .  S
N777        C785   1.354   1_556  A
N778        N779   1.319       .  A
N778        N780   1.313   1_554  A
N778       Mn784   2.186       .  S
N779        C786   1.350   1_554  A
N780        N781   1.320       .  A
N780       Mn806   2.192       .  S
N781        C786   1.351       .  A
N782        N783   1.319       .  A
N782       Mn784   2.205       .  S
N783        C785   1.352       .  A
Mn784      Cl808   2.523   1_554  S
C785       C1530   1.492       .  S
N787        N788   1.321       .  A
N787        N793   1.320   1_554  A
N787       Mn795   2.213       .  S
N788        C796   1.355       .  A
N789        N791   1.314   1_556  A
N789        N790   1.320       .  A
N789       Mn807   2.188       .  S
N790        C797   1.350       .  A
N791        N792   1.319       .  A
N791       Mn795   2.194       .  S
N792        C797   1.351   1_554  A
N793        N794   1.321       .  A
N793       Mn807   2.212       .  S
N794        C796   1.352   1_556  A
Mn795      Cl808   2.549   1_544  S
C796       C1514   1.497       .  S
N798        N799   1.319       .  A
N798        N804   1.314   1_565  A
N798       Mn806   2.182       .  S
N799        C809   1.349       .  A
N800        N801   1.319       .  A
N800        N802   1.320   1_545  A
N800       Mn807   2.204       .  S
N801        C810   1.349   1_545  A
N802        N803   1.323       .  A
N802       Mn806   2.216       .  S
N803        C810   1.354       .  A
N804        N805   1.319       .  A
N804       Mn807   2.197       .  S
N805        C809   1.352   1_545  A
Mn806      Cl808   2.551       .  S
Mn807      Cl808   2.529   1_545  S
C810       C1546   1.491       .  S
N811        N812   1.318       .  A
N811        N817   1.313   1_455  A
N811       Mn840   2.185       .  S
N812        C819   1.350       .  A
N813        N815   1.320   1_655  A
N813        N814   1.318       .  A
N813       Mn829   2.208       .  S
N814        C820   1.352   1_655  A
N815        N816   1.323       .  A
N815       Mn840   2.204       .  S
N816        C820   1.351       .  A
N817        N818   1.319       .  A
N817       Mn829   2.190       .  S
N818        C819   1.351   1_655  A
C819       C1044   1.456       .  S
C820       C1482   1.491       .  S
N821        N827   1.319       .  A
N821        N822   1.318       .  A
N821       Mn851   2.197       .  S
N822        C830   1.348       .  A
N823        N824   1.318       .  A
N823        N825   1.313       .  A
N823       Mn829   2.182       .  S
N824        C831   1.350       .  A
N825        N826   1.320       .  A
N825       Mn851   2.194       .  S
N826        C831   1.352       .  A
N827        N828   1.324       .  A
N827       Mn829   2.215       .  S
N828        C830   1.355       .  A
Mn829      Cl853   2.540   1_655  S
C830       C1498   1.490       .  S
C831        C876   1.458       .  S
N832        N833   1.319       .  A
N832        N838   1.320       .  A
N832       Mn840   2.207       .  S
N833        C841   1.350       .  A
N834        N836   1.313       .  A
N834        N835   1.318       .  A
N834       Mn852   2.183       .  S
N835        C842   1.350       .  A
N836        N837   1.318       .  A
N836       Mn840   2.184       .  S
N837        C842   1.349       .  A
N838        N839   1.323       .  A
N838       Mn852   2.215       .  S
N839        C841   1.354       .  A
Mn840      Cl853   2.530       .  S
C841       C1450   1.494       .  S
C842        C909   1.452       .  S
N843        N844   1.318       .  A
N843        N849   1.313   1_655  A
N843       Mn851   2.182       .  S
N844        C854   1.349   1_655  A
N845        N846   1.323       .  A
N845        N847   1.319   1_455  A
N845       Mn852   2.211       .  S
N846        C855   1.354       .  A
N847        N848   1.318       .  A
N847       Mn851   2.204       .  S
N848        C855   1.351   1_655  A
N849        N850   1.319       .  A
N849       Mn852   2.189       .  S
N850        C854   1.351       .  A
Mn851      Cl853   2.524   1_655  S
Mn852      Cl853   2.548       .  S
C854        C999   1.454       .  S
C855       C1466   1.488       .  S
N856        N857   1.319       .  A
N856        N862   1.314   1_545  A
N856       Mn885   2.186       .  S
N857        C864   1.350   1_545  A
N858        N860   1.321   1_565  A
N858        N859   1.319       .  A
N858       Mn874   2.205       .  S
N859        C865   1.349       .  A
N860        N861   1.323       .  A
N860       Mn885   2.217       .  S
N861        C865   1.354   1_545  A
N862        N863   1.320       .  A
N862       Mn874   2.198       .  S
N863        C864   1.352       .  A
C864       C1011   1.460       .  S
C865       C1402   1.490       .  S
N866        N872   1.319       .  A
N866        N867   1.318       .  A
N866       Mn896   2.204       .  S
N867        C875   1.352       .  A
N868        N869   1.319       .  A
N868        N870   1.313       .  A
N868       Mn874   2.183       .  S
N869        C876   1.350       .  A
N870        N871   1.319       .  A
N870       Mn896   2.196       .  S
N871        C876   1.351       .  A
N872        N873   1.324       .  A
N872       Mn874   2.215       .  S
N873        C875   1.354       .  A
Mn874      Cl898   2.534       .  S
C875       C1434   1.493       .  S
N877        N878   1.324       .  A
N877        N883   1.319       .  A
N877       Mn885   2.215       .  S
N878        C886   1.354       .  A
N879        N881   1.313       .  A
N879        N880   1.317       .  A
N879       Mn897   2.179       .  S
N880        C887   1.348       .  A
N881        N882   1.320       .  A
N881       Mn885   2.191       .  S
N882        C887   1.351       .  A
N883        N884   1.319       .  A
N883       Mn897   2.209       .  S
N884        C886   1.353       .  A
Mn885      Cl898   2.548   1_545  S
C886       C1386   1.498       .  S
C887        C954   1.454       .  S
N888        N889   1.319       .  A
N888        N894   1.313   1_565  A
N888       Mn896   2.183       .  S
N889        C899   1.350       .  A
N890        N891   1.319       .  A
N890        N892   1.319   1_545  A
N890       Mn897   2.199       .  S
N891        C900   1.350   1_545  A
N892        N893   1.323       .  A
N892       Mn896   2.213       .  S
N893        C900   1.355       .  A
N894        N895   1.320       .  A
N894       Mn897   2.196       .  S
N895        C899   1.352   1_545  A
Mn896      Cl898   2.539       .  S
Mn897      Cl898   2.528   1_545  S
C899       C1067   1.459       .  S
C900       C1418   1.495       .  S
N901        N902   1.318       .  A
N901        N907   1.312       .  A
N901       Mn930   2.180       .  S
N902        C909   1.350       .  A
N903        N905   1.319       .  A
N903        N904   1.318       .  A
N903       Mn919   2.205       .  S
N904        C910   1.352       .  A
N905        N906   1.324       .  A
N905       Mn930   2.210       .  S
N906        C910   1.354       .  A
N907        N908   1.318       .  A
N907       Mn919   2.183       .  S
N908        C909   1.349       .  A
C910       C1354   1.495       .  S
N911        N917   1.320   1_545  A
N911        N912   1.321       .  A
N911       Mn941   2.213       .  S
N912        C920   1.354   1_545  A
N913        N914   1.318       .  A
N913        N915   1.313   1_565  A
N913       Mn919   2.181       .  S
N914        C921   1.349       .  A
N915        N916   1.319       .  A
N915       Mn941   2.191       .  S
N916        C921   1.351   1_545  A
N917        N918   1.320       .  A
N917       Mn919   2.200       .  S
N918        C920   1.350       .  A
Mn919      Cl943   2.528       .  S
C920       C1370   1.496       .  S
C921       C1022   1.455       .  S
N922        N923   1.318       .  A
N922        N928   1.320   1_565  A
N922       Mn930   2.204       .  S
N923        C931   1.352       .  A
N924        N926   1.313   1_545  A
N924        N925   1.319       .  A
N924       Mn942   2.184       .  S
N925        C932   1.350   1_545  A
N926        N927   1.318       .  A
N926       Mn930   2.188       .  S
N927        C932   1.350       .  A
N928        N929   1.323       .  A
N928       Mn942   2.215       .  S
N929        C931   1.354   1_545  A
Mn930      Cl943   2.541       .  S
C931       C1322   1.491       .  S
C932       C1056   1.455       .  S
N933        N934   1.319       .  A
N933        N939   1.314       .  A
N933       Mn941   2.188       .  S
N934        C944   1.350       .  A
N935        N936   1.318       .  A
N935        N937   1.321       .  A
N935       Mn942   2.208       .  S
N936        C945   1.352       .  A
N937        N938   1.324       .  A
N937       Mn941   2.215       .  S
N938        C945   1.353       .  A
N939        N940   1.320       .  A
N939       Mn942   2.195       .  S
N940        C944   1.351       .  A
Mn941      Cl943   2.543   1_545  S
Mn942      Cl943   2.534   1_545  S
C944        C989   1.459       .  S
C945       C1341   1.490       .  S
N946        N947   1.319       .  A
N946        N952   1.312       .  A
N946       Mn975   2.181       .  S
N947        C954   1.349       .  A
N948        N950   1.319       .  A
N948        N949   1.323       .  A
N948       Mn964   2.213       .  S
N949        C955   1.355       .  A
N950        N951   1.318       .  A
N950       Mn975   2.198       .  S
N951        C955   1.349       .  A
N952        N953   1.318       .  A
N952       Mn964   2.186       .  S
N953        C954   1.351       .  A
C955       C1277   1.492       .  S
N956        N962   1.320   1_455  A
N956        N957   1.323       .  A
N956       Mn986   2.218       .  S
N957        C965   1.355       .  A
N958        N959   1.318       .  A
N958        N960   1.314   1_655  A
N958       Mn964   2.187       .  S
N959        C966   1.350   1_655  A
N960        N961   1.319       .  A
N960       Mn986   2.187       .  S
N961        C966   1.350       .  A
N962        N963   1.320       .  A
N962       Mn964   2.206       .  S
N963        C965   1.350   1_655  A
Mn964      Cl988   2.541   1_655  S
C965       C1258   1.498       .  S
C966       C1079   1.455       .  S
N967        N968   1.317       .  A
N967        N973   1.319   1_655  A
N967       Mn975   2.193       .  S
N968        C976   1.347   1_655  A
N969        N971   1.313   1_455  A
N969        N970   1.320       .  A
N969       Mn987   2.188       .  S
N970        C977   1.351       .  A
N971        N972   1.319       .  A
N971       Mn975   2.188       .  S
N972        C977   1.350   1_655  A
N973        N974   1.324       .  A
N973       Mn987   2.217       .  S
N974        C976   1.356       .  A
Mn975      Cl988   2.524   1_655  S
C976       C1306   1.493   1_455  S
C977       C1034   1.457       .  S
N978        N979   1.320       .  A
N978        N984   1.314       .  A
N978       Mn986   2.192       .  S
N979        C989   1.351       .  A
N980        N981   1.319       .  A
N980        N982   1.321       .  A
N980       Mn987   2.210       .  S
N981        C990   1.352       .  A
N982        N983   1.323       .  A
N982       Mn986   2.213       .  S
N983        C990   1.353       .  A
N984        N985   1.319       .  A
N984       Mn987   2.193       .  S
N985        C989   1.351       .  A
Mn986      Cl988   2.539       .  S
Mn987      Cl988   2.543       .  S
C990       C1293   1.491       .  S
N991        N992   1.318       .  A
N991        N997   1.313   1_455  A
N991      Mn1020   2.182       .  S
N992        C999   1.349       .  A
N993        N995   1.320   1_655  A
N993        N994   1.323       .  A
N993      Mn1009   2.213       .  S
N994       C1000   1.353   1_655  A
N995        N996   1.318       .  A
N995      Mn1020   2.205       .  S
N996       C1000   1.351       .  A
N997        N998   1.319       .  A
N997      Mn1009   2.190       .  S
N998        C999   1.351   1_655  A
C1000      C1210   1.489       .  S
N1001      N1007   1.321   1_545  A
N1001      N1002   1.318       .  A
N1001     Mn1031   2.208       .  S
N1002      C1010   1.352   1_545  A
N1003      N1004   1.319       .  A
N1003      N1005   1.314   1_565  A
N1003     Mn1009   2.186       .  S
N1004      C1011   1.350       .  A
N1005      N1006   1.320       .  A
N1005     Mn1031   2.198       .  S
N1006      C1011   1.352   1_545  A
N1007      N1008   1.324       .  A
N1007     Mn1009   2.215       .  S
N1008      C1010   1.354       .  A
Mn1009    Cl1033   2.547   1_655  S
C1010      C1226   1.492       .  S
N1012      N1013   1.320       .  A
N1012      N1018   1.318   1_565  A
N1012     Mn1020   2.204       .  S
N1013      C1021   1.351       .  A
N1014      N1016   1.312   1_545  A
N1014      N1015   1.318       .  A
N1014     Mn1032   2.177       .  S
N1015      C1022   1.349   1_545  A
N1016      N1017   1.319       .  A
N1016     Mn1020   2.192       .  S
N1017      C1022   1.352       .  A
N1018      N1019   1.322       .  A
N1018     Mn1032   2.208       .  S
N1019      C1021   1.354   1_545  A
Mn1020    Cl1033   2.530       .  S
C1021      C1194   1.497       .  S
N1023      N1024   1.319       .  A
N1023      N1029   1.313   1_655  A
N1023     Mn1031   2.185       .  S
N1024      C1034   1.350   1_655  A
N1025      N1026   1.317       .  A
N1025      N1027   1.320   1_455  A
N1025     Mn1032   2.193       .  S
N1026      C1035   1.347       .  A
N1027      N1028   1.324       .  A
N1027     Mn1031   2.216       .  S
N1028      C1035   1.355   1_655  A
N1029      N1030   1.319       .  A
N1029     Mn1032   2.192       .  S
N1030      C1034   1.351       .  A
Mn1031    Cl1033   2.534   1_645  S
Mn1032    Cl1033   2.534   1_545  S
C1035      C1245   1.491       .  S
N1036      N1037   1.319       .  A
N1036      N1042   1.313   1_655  A
N1036     Mn1065   2.187       .  S
N1037      C1044   1.351   1_655  A
N1038      N1040   1.319   1_455  A
N1038      N1039   1.322       .  A
N1038     Mn1054   2.213       .  S
N1039      C1045   1.356       .  A
N1040      N1041   1.321       .  A
N1040     Mn1065   2.206       .  S
N1041      C1045   1.351   1_655  A
N1042      N1043   1.318       .  A
N1042     Mn1054   2.187       .  S
N1043      C1044   1.350       .  A
C1045      C1181   1.496       .  S
N1046      N1052   1.320   1_545  A
N1046      N1047   1.320       .  A
N1046     Mn1076   2.208       .  S
N1047      C1055   1.352   1_545  A
N1048      N1049   1.318       .  A
N1048      N1050   1.313   1_565  A
N1048     Mn1054   2.185       .  S
N1049      C1056   1.350       .  A
N1050      N1051   1.319       .  A
N1050     Mn1076   2.186       .  S
N1051      C1056   1.350   1_545  A
N1052      N1053   1.323       .  A
N1052     Mn1054   2.212       .  S
N1053      C1055   1.353       .  A
Mn1054    Cl1078   2.548       .  S
C1055      C1162   1.492       .  S
N1057      N1058   1.315       .  A
N1057      N1063   1.320   1_565  A
N1057     Mn1065   2.202       .  S
N1058      C1066   1.347       .  A
N1059      N1061   1.313   1_545  A
N1059      N1060   1.320       .  A
N1059     Mn1077   2.185       .  S
N1060      C1067   1.350   1_545  A
N1061      N1062   1.319       .  A
N1061     Mn1065   2.195       .  S
N1062      C1067   1.351       .  A
N1063      N1064   1.325       .  A
N1063     Mn1077   2.215       .  S
N1064      C1066   1.356   1_545  A
Mn1065    Cl1078   2.521   1_655  S
C1066      C1130   1.496       .  S
N1068      N1069   1.319       .  A
N1068      N1074   1.313   1_455  A
N1068     Mn1076   2.189       .  S
N1069      C1079   1.350       .  A
N1070      N1071   1.323       .  A
N1070      N1072   1.320   1_655  A
N1070     Mn1077   2.215       .  S
N1071      C1080   1.355   1_655  A
N1072      N1073   1.319       .  A
N1072     Mn1076   2.203       .  S
N1073      C1080   1.349       .  A
N1074      N1075   1.318       .  A
N1074     Mn1077   2.184       .  S
N1075      C1079   1.350   1_655  A
Mn1076    Cl1078   2.525   1_545  S
Mn1077    Cl1078   2.554   1_645  S
C1080      C1146   1.496       .  S
C1081      C1082   1.365       .  D
C1081      C2010   1.494       .  S
C1081      C2074   1.500       .  S
C1082      C1242   1.497       .  S
C1082      C1309   1.496       .  S
C1083      C1084   1.368       .  D
C1083      C1565   1.500       .  S
C1083      C1693   1.503       .  S
C1084      C1229   1.502       .  S
C1084      C1405   1.501       .  S
C1085      C1086   1.363       .  D
C1085      C1949   1.501       .  S
C1085      C2061   1.500       .  S
C1086      C1213   1.499       .  S
C1086      C1469   1.499       .  S
C1087      C1088   1.364       .  D
C1087      C1629   1.500       .  S
C1087      C1677   1.505       .  S
C1088      C1197   1.501       .  S
C1088      C1373   1.498       .  S
C1089      C1090   1.365       .  D
C1089      C2333   1.500       .  S
C1089      C2637   1.503       .  S
C1090      C1290   1.502       .  S
C1090      C1338   1.500       .  S
C1091      C1092   1.363       .  D
C1091      C2445   1.499       .  S
C1091      C2650   1.500       .  S
C1092      C1274   1.500       .  S
C1092      C1389   1.501       .  S
C1093      C1094   1.368       .  D
C1093      C2317   1.498       .  S
C1093      C2509   1.501       .  S
C1094      C1357   1.500       .  S
C1094      C1453   1.503       .  S
C1095      C1096   1.365       .  D
C1095      C1165   1.505       .  S
C1095      C1325   1.501       .  S
C1096      C1613   1.501       .  S
C1096      C1786   1.503       .  S
C1097      C1098   1.368       .  D
C1097      C1997   1.507       .  S
C1097      C2141   1.500       .  S
C1098      C1597   1.503       .  S
C1098      C1725   1.509       .  S
C1099      C1100   1.368       .  D
C1099      C1917   1.502       .  S
C1099      C2122   1.502       .  S
C1100      C1581   1.501       .  S
C1100      C1837   1.501       .  S
C1101      C1102   1.363       .  D
C1101      C2525   1.501       .  S
C1101      C2589   1.501       .  S
C1102      C1661   1.503       .  S
C1102      C1869   1.499       .  S
C1103      C1104   1.366       .  D
C1103      C2573   1.502       .  S
C1103      C2621   1.499       .  S
C1104      C1645   1.501       .  S
C1104      C1757   1.501       .  S
C1105      C1106   1.366       .  D
C1105      C2397   1.502       .  S
C1105      C2602   1.502       .  S
C1106      C1741   1.504       .  S
C1106      C1805   1.505       .  S
C1107      C1108   1.365       .  D
C1107      C1149   1.501       .  S
C1107      C1261   1.501       .  S
C1108      C1981   1.502   1_455  S
C1108      C2173   1.503       .  S
C1109      C1110   1.368   1_556  D
C1109      C1965   1.499       .  S
C1109      C2221   1.500       .  S
C1110      C1517   1.502       .  S
C1110      C1709   1.500       .  S
C1111      C1112   1.364       .  D
C1111      C2301   1.501       .  S
C1111      C2554   1.499       .  S
C1112      C2045   1.501       .  S
C1112      C2109   1.505       .  S
C1113      C1114   1.370       .  D
C1113      C2458   1.499       .  S
C1113      C2538   1.514       .  S
C1114      C2029   1.502       .  S
C1114      C2253   1.501       .  S
C1115      C1116   1.365       .  D
C1115      C2285   1.504       .  S
C1115      C2381   1.501       .  S
C1116      C2093   1.503       .  S
C1116      C2157   1.498       .  S
C1117      C1118   1.366       .  D
C1117      C1930   1.503   1_455  S
C1117      C2186   1.513       .  S
C1118      C1178   1.502       .  S
C1118      C1485   1.494       .  S
C1119      C1120   1.366       .  D
C1119      C1549   1.502       .  S
C1119      C1773   1.500       .  S
C1120      C1133   1.497       .  S
C1120      C1421   1.497       .  S
C1121      C1122   1.364       .  D
C1121      C1901   1.498       .  S
C1121      C2237   1.500   1_556  S
C1122      C1533   1.504   1_556  S
C1122      C1853   1.503       .  S
C1123      C1124   1.370       .  D
C1123      C2365   1.504       .  S
C1123      C2426   1.502       .  S
C1124      C2202   1.511       .  S
C1124      C2269   1.506       .  S
C1125      C1126   1.370       .  D
C1125      C2413   1.504       .  S
C1125      C2474   1.509       .  S
C1126      C1437   1.502       .  S
C1126      C1501   1.506       .  S
C1127      C1128   1.371       .  D
C1127      C2349   1.506       .  S
C1127      C2493   1.504       .  S
C1128      C1821   1.502       .  S
C1128      C1885   1.501       .  S
C1129      C1130   1.409   1_545  A
C1129      C1134   1.411       .  A
C1129      H1136   1.084       .  S
C1130      C1131   1.423       .  A
C1131      C1132   1.397       .  A
C1131      C1138   1.511       .  S
C1132      C1133   1.398       .  A
C1132      H1137   1.077       .  S
C1133      C1134   1.416   1_565  A
C1134      C1135   1.505       .  S
C1135      H1139   1.110       .  S
C1135      H1140   1.106       .  S
C1135      H1141   1.110       .  S
C1138      H1142   1.110       .  S
C1138      H1143   1.110       .  S
C1138      H1144   1.111       .  S
C1145      C1146   1.406   1_655  A
C1145      C1150   1.408       .  A
C1145      H1152   1.083       .  S
C1146      C1147   1.422       .  A
C1147      C1148   1.404       .  A
C1147      C1154   1.509       .  S
C1148      C1149   1.401       .  A
C1148      H1153   1.078       .  S
C1149      C1150   1.416   1_455  A
C1150      C1151   1.504       .  S
C1151      H1155   1.111       .  S
C1151      H1156   1.102       .  S
C1151      H1157   1.104       .  S
C1154      H1158   1.110       .  S
C1154      H1159   1.110       .  S
C1154      H1160   1.111       .  S
C1161      C1162   1.405   1_545  A
C1161      C1166   1.401       .  A
C1161      H1168   1.084       .  S
C1162      C1163   1.416       .  A
C1163      C1164   1.409       .  A
C1163      C1170   1.507       .  S
C1164      C1165   1.408       .  A
C1164      H1169   1.080       .  S
C1165      C1166   1.417   1_565  A
C1166      C1167   1.506       .  S
C1167      H1171   1.111       .  S
C1167      H1172   1.110       .  S
C1167      H1173   1.100       .  S
C1170      H1174   1.109       .  S
C1170      H1175   1.110       .  S
C1170      H1176   1.111       .  S
C1177      C1178   1.403   1_655  A
C1177      C1182   1.409       .  A
C1177      H1184   1.081       .  S
C1178      C1179   1.413       .  A
C1179      C1180   1.402       .  A
C1179      C1186   1.505       .  S
C1180      C1181   1.406       .  A
C1180      H1185   1.084       .  S
C1181      C1182   1.421   1_455  A
C1182      C1183   1.507       .  S
C1183      H1187   1.111       .  S
C1183      H1188   1.109       .  S
C1183      H1189   1.110       .  S
C1186      H1190   1.106       .  S
C1186      H1191   1.111       .  S
C1186      H1192   1.110       .  S
C1193      C1194   1.407   1_545  A
C1193      C1198   1.405       .  A
C1193      H1200   1.084       .  S
C1194      C1195   1.422       .  A
C1195      C1196   1.406       .  A
C1195      C1202   1.508       .  S
C1196      C1197   1.403       .  A
C1196      H1201   1.083       .  S
C1197      C1198   1.414   1_565  A
C1198      C1199   1.501       .  S
C1199      H1203   1.110       .  S
C1199      H1204   1.101       .  S
C1199      H1205   1.110       .  S
C1202      H1206   1.110       .  S
C1202      H1207   1.109       .  S
C1202      H1208   1.111       .  S
C1209      C1210   1.404       .  A
C1209      C1214   1.396       .  A
C1209      H1216   1.084       .  S
C1210      C1211   1.416   1_455  A
C1211      C1212   1.411       .  A
C1211      C1218   1.506       .  S
C1212      C1213   1.407   1_655  A
C1212      H1217   1.083       .  S
C1213      C1214   1.415       .  A
C1214      C1215   1.507       .  S
C1215      H1219   1.111       .  S
C1215      H1220   1.104       .  S
C1215      H1221   1.110       .  S
C1218      H1222   1.110       .  S
C1218      H1223   1.109       .  S
C1218      H1224   1.111       .  S
C1225      C1226   1.404   1_545  A
C1225      C1230   1.396       .  A
C1225      H1232   1.084       .  S
C1226      C1227   1.418       .  A
C1227      C1228   1.412       .  A
C1227      C1234   1.506       .  S
C1228      C1229   1.408       .  A
C1228      H1233   1.083       .  S
C1229      C1230   1.415   1_565  A
C1230      C1231   1.505       .  S
C1231      H1235   1.111       .  S
C1231      H1236   1.110       .  S
C1231      H1237   1.098       .  S
C1234      H1238   1.109       .  S
C1234      H1239   1.110       .  S
C1234      H1240   1.111       .  S
C1241      C1242   1.400       .  A
C1241      C1246   1.399       .  A
C1241      H1248   1.082       .  S
C1242      C1243   1.418   1_455  A
C1243      C1244   1.409       .  A
C1243      C1250   1.505       .  S
C1244      C1245   1.405   1_655  A
C1244      H1249   1.084       .  S
C1245      C1246   1.422       .  A
C1246      C1247   1.510       .  S
C1247      H1251   1.111       .  S
C1247      H1252   1.110       .  S
C1247      H1253   1.110       .  S
C1250      H1254   1.103       .  S
C1250      H1255   1.105       .  S
C1250      H1256   1.111       .  S
C1257      C1258   1.407       .  A
C1257      C1262   1.405       .  A
C1257      H1264   1.084       .  S
C1258      C1259   1.422   1_455  A
C1259      C1260   1.406       .  A
C1259      C1266   1.508       .  S
C1260      C1261   1.401   1_655  A
C1260      H1265   1.078       .  S
C1261      C1262   1.415       .  A
C1262      C1263   1.502       .  S
C1263      H1267   1.110       .  S
C1263      H1268   1.101       .  S
C1263      H1269   1.110       .  S
C1266      H1270   1.109       .  S
C1266      H1271   1.110       .  S
C1266      H1272   1.111       .  S
C1273      C1274   1.401       .  A
C1273      C1278   1.401       .  A
C1273      H1280   1.083       .  S
C1274      C1275   1.418       .  A
C1275      C1276   1.409       .  A
C1275      C1282   1.505       .  S
C1276      C1277   1.405       .  A
C1276      H1281   1.084       .  S
C1277      C1278   1.422       .  A
C1278      C1279   1.510       .  S
C1279      H1283   1.111       .  S
C1279      H1284   1.110       .  S
C1279      H1285   1.110       .  S
C1282      H1286   1.104       .  S
C1282      H1287   1.108       .  S
C1282      H1288   1.111       .  S
C1289      C1290   1.407       .  A
C1289      C1294   1.411       .  A
C1289      H1296   1.083       .  S
C1290      C1291   1.415       .  A
C1291      C1292   1.398       .  A
C1291      C1298   1.507       .  S
C1292      C1293   1.404       .  A
C1292      H1297   1.084       .  S
C1293      C1294   1.417       .  A
C1294      C1295   1.506       .  S
C1295      H1299   1.111       .  S
C1295      H1300   1.109       .  S
C1295      H1301   1.110       .  S
C1298      H1302   1.110       .  S
C1298      H1303   1.104       .  S
C1298      H1304   1.111       .  S
C1305      C1306   1.406   1_455  A
C1305      C1310   1.407       .  A
C1305      H1312   1.084       .  S
C1306      C1307   1.424       .  A
C1307      C1308   1.400       .  A
C1307      C1314   1.510       .  S
C1308      C1309   1.399   1_655  A
C1308      H1313   1.080       .  S
C1309      C1310   1.417       .  A
C1310      C1311   1.505       .  S
C1311      H1315   1.110       .  S
C1311      H1316   1.110       .  S
C1311      H1317   1.103       .  S
C1314      H1318   1.110       .  S
C1314      H1319   1.111       .  S
C1314      H1320   1.111       .  S
C1321      C1322   1.405       .  A
C1321      C1326   1.398       .  A
C1321      H1328   1.084       .  S
C1322      C1323   1.416   1_565  A
C1323      C1324   1.411       .  A
C1323      C1330   1.506       .  S
C1324      C1325   1.407   1_545  A
C1324      H1329   1.082       .  S
C1325      C1326   1.415       .  A
C1326      C1327   1.506       .  S
C1327      H1331   1.111       .  S
C1327      H1332   1.110       .  S
C1327      H1333   1.104       .  S
C1330      H1334   1.109       .  S
C1330      H1335   1.110       .  S
C1330      H1336   1.111       .  S
C1337      C1338   1.407       .  A
C1337      C1342   1.412       .  A
C1337      H1344   1.083       .  S
C1338      C1339   1.415       .  A
C1339      C1340   1.397       .  A
C1339      C1346   1.507       .  S
C1340      C1341   1.404       .  A
C1340      H1345   1.084       .  S
C1341      C1342   1.417       .  A
C1342      C1343   1.505       .  S
C1343      H1347   1.111       .  S
C1343      H1348   1.109       .  S
C1343      H1349   1.110       .  S
C1346      H1350   1.110       .  S
C1346      H1351   1.104       .  S
C1346      H1352   1.111       .  S
C1353      C1354   1.404       .  A
C1353      C1358   1.396       .  A
C1353      H1360   1.084       .  S
C1354      C1355   1.419       .  A
C1355      C1356   1.413       .  A
C1355      C1362   1.506       .  S
C1356      C1357   1.407       .  A
C1356      H1361   1.084       .  S
C1357      C1358   1.415       .  A
C1358      C1359   1.504       .  S
C1359      H1363   1.110       .  S
C1359      H1364   1.098       .  S
C1359      H1365   1.111       .  S
C1362      H1366   1.109       .  S
C1362      H1367   1.110       .  S
C1362      H1368   1.111       .  S
C1369      C1370   1.404   1_545  A
C1369      C1374   1.401       .  A
C1369      H1376   1.084       .  S
C1370      C1371   1.423       .  A
C1371      C1372   1.408       .  A
C1371      C1378   1.508       .  S
C1372      C1373   1.403       .  A
C1372      H1377   1.083       .  S
C1373      C1374   1.415   1_565  A
C1374      C1375   1.503       .  S
C1375      H1379   1.110       .  S
C1375      H1380   1.099       .  S
C1375      H1381   1.111       .  S
C1378      H1382   1.110       .  S
C1378      H1383   1.110       .  S
C1378      H1384   1.111       .  S
C1385      C1386   1.407       .  A
C1385      C1390   1.401       .  A
C1385      H1392   1.083       .  S
C1386      C1387   1.421       .  A
C1387      C1388   1.411       .  A
C1387      C1394   1.506       .  S
C1388      C1389   1.405       .  A
C1388      H1393   1.083       .  S
C1389      C1390   1.411       .  A
C1390      C1391   1.504       .  S
C1391      H1395   1.111       .  S
C1391      H1396   1.109       .  S
C1391      H1397   1.107       .  S
C1394      H1398   1.110       .  S
C1394      H1399   1.109       .  S
C1394      H1400   1.111       .  S
C1401      C1402   1.405   1_545  A
C1401      C1406   1.409       .  A
C1401      H1408   1.084       .  S
C1402      C1403   1.420       .  A
C1403      C1404   1.400       .  A
C1403      C1410   1.510       .  S
C1404      C1405   1.404       .  A
C1404      H1409   1.084       .  S
C1405      C1406   1.420   1_565  A
C1406      C1407   1.504       .  S
C1407      H1411   1.111       .  S
C1407      H1412   1.110       .  S
C1407      H1413   1.102       .  S
C1410      H1414   1.110       .  S
C1410      H1415   1.111       .  S
C1410      H1416   1.111       .  S
C1417      C1418   1.406       .  A
C1417      C1422   1.407       .  A
C1417      H1424   1.083       .  S
C1418      C1419   1.423   1_565  A
C1419      C1420   1.403       .  A
C1419      C1426   1.509       .  S
C1420      C1421   1.400   1_545  A
C1420      H1425   1.082       .  S
C1421      C1422   1.415       .  A
C1422      C1423   1.506       .  S
C1423      H1427   1.111       .  S
C1423      H1428   1.104       .  S
C1423      H1429   1.104       .  S
C1426      H1430   1.110       .  S
C1426      H1431   1.110       .  S
C1426      H1432   1.111       .  S
C1433      C1434   1.405       .  A
C1433      C1438   1.399       .  A
C1433      H1440   1.083       .  S
C1434      C1435   1.417       .  A
C1435      C1436   1.411       .  A
C1435      C1442   1.506       .  S
C1436      C1437   1.408       .  A
C1436      H1441   1.083       .  S
C1437      C1438   1.415       .  A
C1438      C1439   1.506       .  S
C1439      H1443   1.111       .  S
C1439      H1444   1.106       .  S
C1439      H1445   1.107       .  S
C1442      H1446   1.109       .  S
C1442      H1447   1.110       .  S
C1442      H1448   1.111       .  S
C1449      C1450   1.406       .  A
C1449      C1454   1.409       .  A
C1449      H1456   1.084       .  S
C1450      C1451   1.421       .  A
C1451      C1452   1.401       .  A
C1451      C1458   1.509       .  S
C1452      C1453   1.403       .  A
C1452      H1457   1.083       .  S
C1453      C1454   1.419       .  A
C1454      C1455   1.504       .  S
C1455      H1459   1.110       .  S
C1455      H1460   1.101       .  S
C1455      H1461   1.111       .  S
C1458      H1462   1.110       .  S
C1458      H1463   1.110       .  S
C1458      H1464   1.111       .  S
C1465      C1466   1.405   1_655  A
C1465      C1470   1.397       .  A
C1465      H1472   1.084       .  S
C1466      C1467   1.416       .  A
C1467      C1468   1.410       .  A
C1467      C1474   1.506       .  S
C1468      C1469   1.407       .  A
C1468      H1473   1.083       .  S
C1469      C1470   1.415   1_455  A
C1470      C1471   1.507       .  S
C1471      H1475   1.111       .  S
C1471      H1476   1.104       .  S
C1471      H1477   1.110       .  S
C1474      H1478   1.110       .  S
C1474      H1479   1.109       .  S
C1474      H1480   1.111       .  S
C1481      C1482   1.404   1_655  A
C1481      C1486   1.396       .  A
C1481      H1488   1.084       .  S
C1482      C1483   1.418       .  A
C1483      C1484   1.411       .  A
C1483      C1490   1.506       .  S
C1484      C1485   1.406       .  A
C1484      H1489   1.082       .  S
C1485      C1486   1.416   1_455  A
C1486      C1487   1.507       .  S
C1487      H1491   1.111       .  S
C1487      H1492   1.110       .  S
C1487      H1493   1.102       .  S
C1490      H1494   1.110       .  S
C1490      H1495   1.110       .  S
C1490      H1496   1.111       .  S
C1497      C1498   1.403       .  A
C1497      C1502   1.409       .  A
C1497      H1504   1.084       .  S
C1498      C1499   1.420       .  A
C1499      C1500   1.401       .  A
C1499      C1506   1.510       .  S
C1500      C1501   1.404       .  A
C1500      H1505   1.084       .  S
C1501      C1502   1.421       .  A
C1502      C1503   1.503       .  S
C1503      H1507   1.111       .  S
C1503      H1508   1.104       .  S
C1503      H1509   1.104       .  S
C1506      H1510   1.109       .  S
C1506      H1511   1.111       .  S
C1506      H1512   1.111       .  S
C1513      C1514   1.407       .  A
C1513      C1518   1.404       .  A
C1513      H1520   1.083       .  S
C1514      C1515   1.421   1_554  A
C1515      C1516   1.409       .  A
C1515      C1522   1.507       .  S
C1516      C1517   1.404   1_556  A
C1516      H1521   1.081       .  S
C1517      C1518   1.413       .  A
C1518      C1519   1.505       .  S
C1519      H1523   1.111       .  S
C1519      H1524   1.106       .  S
C1519      H1525   1.109       .  S
C1522      H1526   1.109       .  S
C1522      H1527   1.110       .  S
C1522      H1528   1.111       .  S
C1529      C1530   1.405       .  A
C1529      C1534   1.400       .  A
C1529      H1536   1.084       .  S
C1530      C1531   1.416   1_554  A
C1531      C1532   1.411       .  A
C1531      C1538   1.506       .  S
C1532      C1533   1.408   1_556  A
C1532      H1537   1.079       .  S
C1533      C1534   1.415       .  A
C1534      C1535   1.505       .  S
C1535      H1539   1.110       .  S
C1535      H1540   1.100       .  S
C1535      H1541   1.111       .  S
C1538      H1542   1.110       .  S
C1538      H1543   1.109       .  S
C1538      H1544   1.111       .  S
C1545      C1546   1.404       .  A
C1545      C1550   1.407       .  A
C1545      H1552   1.084       .  S
C1546      C1547   1.421   1_565  A
C1547      C1548   1.402       .  A
C1547      C1554   1.509       .  S
C1548      C1549   1.403   1_545  A
C1548      H1553   1.084       .  S
C1549      C1550   1.420       .  A
C1550      C1551   1.503       .  S
C1551      H1555   1.111       .  S
C1551      H1556   1.110       .  S
C1551      H1557   1.100       .  S
C1554      H1558   1.110       .  S
C1554      H1559   1.110       .  S
C1554      H1560   1.111       .  S
C1561      C1562   1.406   1_545  A
C1561      C1566   1.408       .  A
C1561      H1568   1.083       .  S
C1562      C1563   1.423       .  A
C1563      C1564   1.402       .  A
C1563      C1570   1.509       .  S
C1564      C1565   1.400       .  A
C1564      H1569   1.081       .  S
C1565      C1566   1.417   1_565  A
C1566      C1567   1.506       .  S
C1567      H1571   1.110       .  S
C1567      H1572   1.104       .  S
C1567      H1573   1.106       .  S
C1570      H1574   1.110       .  S
C1570      H1575   1.110       .  S
C1570      H1576   1.111       .  S
C1577      C1578   1.405       .  A
C1577      C1582   1.410       .  A
C1577      H1584   1.084       .  S
C1578      C1579   1.420   1_556  A
C1579      C1580   1.399       .  A
C1579      C1586   1.510       .  S
C1580      C1581   1.403   1_554  A
C1580      H1585   1.084       .  S
C1581      C1582   1.420       .  A
C1582      C1583   1.504       .  S
C1583      H1587   1.110       .  S
C1583      H1588   1.102       .  S
C1583      H1589   1.111       .  S
C1586      H1590   1.110       .  S
C1586      H1591   1.110       .  S
C1586      H1592   1.111       .  S
C1593      C1594   1.405       .  A
C1593      C1598   1.402       .  A
C1593      H1600   1.084       .  S
C1594      C1595   1.421   1_556  A
C1595      C1596   1.408       .  A
C1595      C1602   1.508       .  S
C1596      C1597   1.404   1_554  A
C1596      H1601   1.080       .  S
C1597      C1598   1.414       .  A
C1598      C1599   1.501       .  S
C1599      H1603   1.111       .  S
C1599      H1604   1.110       .  S
C1599      H1605   1.100       .  S
C1602      H1606   1.109       .  S
C1602      H1607   1.110       .  S
C1602      H1608   1.111       .  S
C1609      C1610   1.407   1_545  A
C1609      C1614   1.405       .  A
C1609      H1616   1.084       .  S
C1610      C1611   1.420       .  A
C1611      C1612   1.406       .  A
C1611      C1618   1.508       .  S
C1612      C1613   1.402       .  A
C1612      H1617   1.078       .  S
C1613      C1614   1.415   1_565  A
C1614      C1615   1.503       .  S
C1615      H1619   1.110       .  S
C1615      H1620   1.101       .  S
C1615      H1621   1.110       .  S
C1618      H1622   1.110       .  S
C1618      H1623   1.109       .  S
C1618      H1624   1.111       .  S
C1625      C1626   1.405   1_545  A
C1625      C1630   1.397       .  A
C1625      H1632   1.084       .  S
C1626      C1627   1.414       .  A
C1627      C1628   1.410       .  A
C1627      C1634   1.506       .  S
C1628      C1629   1.409       .  A
C1628      H1633   1.081       .  S
C1629      C1630   1.414   1_565  A
C1630      C1631   1.507       .  S
C1631      H1635   1.111       .  S
C1631      H1636   1.110       .  S
C1631      H1637   1.101       .  S
C1634      H1638   1.109       .  S
C1634      H1639   1.110       .  S
C1634      H1640   1.111       .  S
C1641      C1642   1.406       .  A
C1641      C1646   1.399       .  A
C1641      H1648   1.084       .  S
C1642      C1643   1.419       .  A
C1643      C1644   1.410       .  A
C1643      C1650   1.506       .  S
C1644      C1645   1.405       .  A
C1644      H1649   1.083       .  S
C1645      C1646   1.412       .  A
C1646      C1647   1.503       .  S
C1647      H1651   1.110       .  S
C1647      H1652   1.100       .  S
C1647      H1653   1.110       .  S
C1650      H1654   1.110       .  S
C1650      H1655   1.109       .  S
C1650      H1656   1.111       .  S
C1657      C1658   1.406       .  A
C1657      C1662   1.403       .  A
C1657      H1664   1.083       .  S
C1658      C1659   1.419       .  A
C1659      C1660   1.411       .  A
C1659      C1666   1.506       .  S
C1660      C1661   1.406       .  A
C1660      H1665   1.081       .  S
C1661      C1662   1.415       .  A
C1662      C1663   1.506       .  S
C1663      H1667   1.111       .  S
C1663      H1668   1.105       .  S
C1663      H1669   1.107       .  S
C1666      H1670   1.109       .  S
C1666      H1671   1.110       .  S
C1666      H1672   1.111       .  S
C1673      C1674   1.406       .  A
C1673      C1678   1.403       .  A
C1673      H1680   1.084       .  S
C1674      C1675   1.416   1_565  A
C1675      C1676   1.406       .  A
C1675      C1682   1.508       .  S
C1676      C1677   1.405   1_545  A
C1676      H1681   1.075       .  S
C1677      C1678   1.414       .  A
C1678      C1679   1.505       .  S
C1679      H1683   1.110       .  S
C1679      H1684   1.110       .  S
C1679      H1685   1.106       .  S
C1682      H1686   1.108       .  S
C1682      H1687   1.110       .  S
C1682      H1688   1.111       .  S
C1689      C1690   1.407       .  A
C1689      C1694   1.413       .  A
C1689      H1696   1.084       .  S
C1690      C1691   1.421   1_565  A
C1691      C1692   1.397       .  A
C1691      C1698   1.511       .  S
C1692      C1693   1.401   1_545  A
C1692      H1697   1.078       .  S
C1693      C1694   1.419       .  A
C1694      C1695   1.506       .  S
C1695      H1699   1.111       .  S
C1695      H1700   1.104       .  S
C1695      H1701   1.107       .  S
C1698      H1702   1.110       .  S
C1698      H1703   1.110       .  S
C1698      H1704   1.111       .  S
C1705      C1706   1.406   1_554  A
C1705      C1710   1.411       .  A
C1705      H1712   1.084       .  S
C1706      C1707   1.422       .  A
C1707      C1708   1.399       .  A
C1707      C1714   1.511       .  S
C1708      C1709   1.401   1_556  A
C1708      H1713   1.083       .  S
C1709      C1710   1.419       .  A
C1710      C1711   1.505       .  S
C1711      H1715   1.110       .  S
C1711      H1716   1.110       .  S
C1711      H1717   1.104       .  S
C1714      H1718   1.110       .  S
C1714      H1719   1.111       .  S
C1714      H1720   1.111       .  S
C1721      C1722   1.403   1_556  A
C1721      C1726   1.407       .  A
C1721      H1728   1.084       .  S
C1722      C1723   1.421       .  A
C1723      C1724   1.406       .  A
C1723      C1730   1.508       .  S
C1724      C1725   1.405   1_554  A
C1724      H1729   1.081       .  S
C1725      C1726   1.420       .  A
C1726      C1727   1.502       .  S
C1727      H1731   1.111       .  S
C1727      H1732   1.101       .  S
C1727      H1733   1.099       .  S
C1730      H1734   1.110       .  S
C1730      H1735   1.110       .  S
C1730      H1736   1.111       .  S
C1737      C1738   1.405       .  A
C1737      C1742   1.401       .  A
C1737      H1744   1.084       .  S
C1738      C1739   1.416       .  A
C1739      C1740   1.410       .  A
C1739      C1746   1.506       .  S
C1740      C1741   1.408       .  A
C1740      H1745   1.080       .  S
C1741      C1742   1.415       .  A
C1742      C1743   1.506       .  S
C1743      H1747   1.111       .  S
C1743      H1748   1.110       .  S
C1743      H1749   1.104       .  S
C1746      H1750   1.109       .  S
C1746      H1751   1.110       .  S
C1746      H1752   1.111       .  S
C1753      C1754   1.405       .  A
C1753      C1758   1.409       .  A
C1753      H1760   1.084       .  S
C1754      C1755   1.421       .  A
C1755      C1756   1.399       .  A
C1755      C1762   1.510       .  S
C1756      C1757   1.403       .  A
C1756      H1761   1.083       .  S
C1757      C1758   1.420       .  A
C1758      C1759   1.503       .  S
C1759      H1763   1.110       .  S
C1759      H1764   1.100       .  S
C1759      H1765   1.110       .  S
C1762      H1766   1.111       .  S
C1762      H1767   1.110       .  S
C1762      H1768   1.111       .  S
C1769      C1770   1.404       .  A
C1769      C1774   1.395       .  A
C1769      H1776   1.084       .  S
C1770      C1771   1.417   1_565  A
C1771      C1772   1.411       .  A
C1771      C1778   1.506       .  S
C1772      C1773   1.408   1_545  A
C1772      H1777   1.083       .  S
C1773      C1774   1.414       .  A
C1774      C1775   1.504       .  S
C1775      H1779   1.111       .  S
C1775      H1780   1.110       .  S
C1775      H1781   1.097       .  S
C1778      H1782   1.109       .  S
C1778      H1783   1.110       .  S
C1778      H1784   1.111       .  S
C1785      C1786   1.402   1_545  A
C1785      C1790   1.405       .  A
C1785      H1792   1.078       .  S
C1786      C1787   1.416       .  A
C1787      C1788   1.407       .  A
C1787      C1794   1.503       .  S
C1788      C1789   1.406       .  A
C1788      H1793   1.083       .  S
C1789      C1790   1.422   1_565  A
C1790      C1791   1.509       .  S
C1791      H1795   1.111       .  S
C1791      H1796   1.110       .  S
C1791      H1797   1.110       .  S
C1794      H1798   1.105       .  S
C1794      H1799   1.102       .  S
C1794      H1800   1.111       .  S
C1801      C1802   1.405       .  A
C1801      C1806   1.401       .  A
C1801      H1808   1.084       .  S
C1802      C1803   1.415       .  A
C1803      C1804   1.408       .  A
C1803      C1810   1.507       .  S
C1804      C1805   1.407       .  A
C1804      H1809   1.078       .  S
C1805      C1806   1.417       .  A
C1806      C1807   1.505       .  S
C1807      H1811   1.111       .  S
C1807      H1812   1.110       .  S
C1807      H1813   1.100       .  S
C1810      H1814   1.109       .  S
C1810      H1815   1.110       .  S
C1810      H1816   1.111       .  S
C1817      C1818   1.409       .  A
C1817      C1822   1.414       .  A
C1817      H1824   1.084       .  S
C1818      C1819   1.422       .  A
C1819      C1820   1.398       .  A
C1819      C1826   1.511       .  S
C1820      C1821   1.400       .  A
C1820      H1825   1.078       .  S
C1821      C1822   1.417       .  A
C1822      C1823   1.505       .  S
C1823      H1827   1.111       .  S
C1823      H1828   1.104       .  S
C1823      H1829   1.105       .  S
C1826      H1830   1.110       .  S
C1826      H1831   1.110       .  S
C1826      H1832   1.111       .  S
C1833      C1834   1.404       .  A
C1833      C1838   1.396       .  A
C1833      H1840   1.084       .  S
C1834      C1835   1.419   1_556  A
C1835      C1836   1.412       .  A
C1835      C1842   1.506       .  S
C1836      C1837   1.407   1_554  A
C1836      H1841   1.084       .  S
C1837      C1838   1.415       .  A
C1838      C1839   1.505       .  S
C1839      H1843   1.111       .  S
C1839      H1844   1.110       .  S
C1839      H1845   1.099       .  S
C1842      H1846   1.109       .  S
C1842      H1847   1.110       .  S
C1842      H1848   1.111       .  S
C1849      C1850   1.404       .  A
C1849      C1854   1.399       .  A
C1849      H1856   1.084       .  S
C1850      C1851   1.416   1_556  A
C1851      C1852   1.409       .  A
C1851      C1858   1.507       .  S
C1852      C1853   1.407   1_554  A
C1852      H1857   1.079       .  S
C1853      C1854   1.415       .  A
C1854      C1855   1.505       .  S
C1855      H1859   1.110       .  S
C1855      H1860   1.100       .  S
C1855      H1861   1.111       .  S
C1858      H1862   1.110       .  S
C1858      H1863   1.109       .  S
C1858      H1864   1.111       .  S
C1865      C1866   1.406       .  A
C1865      C1870   1.399       .  A
C1865      H1872   1.084       .  S
C1866      C1867   1.419       .  A
C1867      C1868   1.411       .  A
C1867      C1874   1.506       .  S
C1868      C1869   1.405       .  A
C1868      H1873   1.083       .  S
C1869      C1870   1.413       .  A
C1870      C1871   1.504       .  S
C1871      H1875   1.111       .  S
C1871      H1876   1.110       .  S
C1871      H1877   1.102       .  S
C1874      H1878   1.109       .  S
C1874      H1879   1.110       .  S
C1874      H1880   1.111       .  S
C1881      C1882   1.408       .  A
C1881      C1886   1.406       .  A
C1881      H1888   1.084       .  S
C1882      C1883   1.422       .  A
C1883      C1884   1.406       .  A
C1883      C1890   1.508       .  S
C1884      C1885   1.401       .  A
C1884      H1889   1.079       .  S
C1885      C1886   1.416       .  A
C1886      C1887   1.504       .  S
C1887      H1891   1.110       .  S
C1887      H1892   1.103       .  S
C1887      H1893   1.110       .  S
C1890      H1894   1.110       .  S
C1890      H1895   1.109       .  S
C1890      H1896   1.111       .  S
C1897      C1898   1.405   1_556  A
C1897      C1902   1.401       .  A
C1897      H1904   1.084       .  S
C1898      C1899   1.422       .  A
C1899      C1900   1.409       .  A
C1899      C1906   1.508       .  S
C1900      C1901   1.403   1_554  A
C1900      H1905   1.080       .  S
C1901      C1902   1.415       .  A
C1902      C1903   1.505       .  S
C1903      H1907   1.110       .  S
C1903      H1908   1.111       .  S
C1903      H1909   1.101       .  S
C1906      H1910   1.110       .  S
C1906      H1911   1.109       .  S
C1906      H1912   1.111       .  S
C1913      C1914   1.407   1_554  A
C1913      C1918   1.413       .  A
C1913      H1920   1.084       .  S
C1914      C1915   1.422       .  A
C1915      C1916   1.398       .  A
C1915      C1922   1.511       .  S
C1916      C1917   1.400       .  A
C1916      H1921   1.079       .  S
C1917      C1918   1.419   1_556  A
C1918      C1919   1.505       .  S
C1919      H1923   1.111       .  S
C1919      H1924   1.104       .  S
C1919      H1925   1.107       .  S
C1922      H1926   1.110       .  S
C1922      H1927   1.111       .  S
C1922      H1928   1.111       .  S
C1929      C1930   1.407   1_455  A
C1929      C1934   1.410       .  A
C1929      H1936   1.082       .  S
C1930      C1931   1.412       .  A
C1931      C1932   1.399       .  A
C1931      C1938   1.502       .  S
C1932      C1933   1.406   1_655  A
C1932      H1937   1.084       .  S
C1933      C1934   1.418       .  A
C1934      C1935   1.506       .  S
C1935      H1939   1.111       .  S
C1935      H1940   1.109       .  S
C1935      H1941   1.110       .  S
C1938      H1942   1.111       .  S
C1938      H1943   1.100       .  S
C1938      H1944   1.110       .  S
C1945      C1946   1.406       .  A
C1945      C1950   1.410       .  A
C1945      H1952   1.083       .  S
C1946      C1947   1.423   1_455  A
C1947      C1948   1.401       .  A
C1947      C1954   1.511       .  S
C1948      C1949   1.399   1_655  A
C1948      H1953   1.077       .  S
C1949      C1950   1.418       .  A
C1950      C1951   1.505       .  S
C1951      H1955   1.111       .  S
C1951      H1956   1.104       .  S
C1951      H1957   1.104       .  S
C1954      H1958   1.110       .  S
C1954      H1959   1.110       .  S
C1954      H1960   1.111       .  S
C1961      C1962   1.407       .  A
C1961      C1966   1.403       .  A
C1961      H1968   1.083       .  S
C1962      C1963   1.421   1_556  A
C1963      C1964   1.409       .  A
C1963      C1970   1.507       .  S
C1964      C1965   1.403   1_554  A
C1964      H1969   1.082       .  S
C1965      C1966   1.412       .  A
C1966      C1967   1.505       .  S
C1967      H1971   1.111       .  S
C1967      H1972   1.106       .  S
C1967      H1973   1.108       .  S
C1970      H1974   1.109       .  S
C1970      H1975   1.110       .  S
C1970      H1976   1.111       .  S
C1977      C1978   1.405   1_655  A
C1977      C1982   1.399       .  A
C1977      H1984   1.084       .  S
C1978      C1979   1.417       .  A
C1979      C1980   1.410       .  A
C1979      C1986   1.506       .  S
C1980      C1981   1.407   1_455  A
C1980      H1985   1.082       .  S
C1981      C1982   1.415       .  A
C1982      C1983   1.506       .  S
C1983      H1987   1.111       .  S
C1983      H1988   1.105       .  S
C1983      H1989   1.110       .  S
C1986      H1990   1.110       .  S
C1986      H1991   1.109       .  S
C1986      H1992   1.111       .  S
C1993      C1994   1.406   1_554  A
C1993      C1998   1.406       .  A
C1993      H2000   1.083       .  S
C1994      C1995   1.419       .  A
C1995      C1996   1.407       .  A
C1995      C2002   1.508       .  S
C1996      C1997   1.404       .  A
C1996      H2001   1.075       .  S
C1997      C1998   1.416   1_556  A
C1998      C1999   1.506       .  S
C1999      H2003   1.111       .  S
C1999      H2004   1.105       .  S
C1999      H2005   1.108       .  S
C2002      H2006   1.109       .  S
C2002      H2007   1.110       .  S
C2002      H2008   1.111       .  S
C2009      C2010   1.400   1_655  A
C2009      C2014   1.399       .  A
C2009      H2016   1.082       .  S
C2010      C2011   1.418       .  A
C2011      C2012   1.408       .  A
C2011      C2018   1.506       .  S
C2012      C2013   1.405   1_455  A
C2012      H2017   1.084       .  S
C2013      C2014   1.422       .  A
C2014      C2015   1.510       .  S
C2015      H2019   1.111       .  S
C2015      H2020   1.110       .  S
C2015      H2021   1.110       .  S
C2018      H2022   1.102       .  S
C2018      H2023   1.104       .  S
C2018      H2024   1.111       .  S
C2025      C2026   1.405       .  A
C2025      C2030   1.405       .  A
C2025      H2032   1.084       .  S
C2026      C2027   1.422       .  A
C2027      C2028   1.404       .  A
C2027      C2034   1.508       .  S
C2028      C2029   1.403       .  A
C2028      H2033   1.082       .  S
C2029      C2030   1.417       .  A
C2030      C2031   1.502       .  S
C2031      H2035   1.110       .  S
C2031      H2036   1.097       .  S
C2031      H2037   1.110       .  S
C2034      H2038   1.110       .  S
C2034      H2039   1.110       .  S
C2034      H2040   1.111       .  S
C2041      C2042   1.405       .  A
C2041      C2046   1.398       .  A
C2041      H2048   1.084       .  S
C2042      C2043   1.414       .  A
C2043      C2044   1.411       .  A
C2043      C2050   1.506       .  S
C2044      C2045   1.409       .  A
C2044      H2049   1.081       .  S
C2045      C2046   1.415       .  A
C2046      C2047   1.506       .  S
C2047      H2051   1.110       .  S
C2047      H2052   1.101       .  S
C2047      H2053   1.111       .  S
C2050      H2054   1.109       .  S
C2050      H2055   1.110       .  S
C2050      H2056   1.111       .  S
C2057      C2058   1.406   1_655  A
C2057      C2062   1.409       .  A
C2057      H2064   1.083       .  S
C2058      C2059   1.423       .  A
C2059      C2060   1.401       .  A
C2059      C2066   1.510       .  S
C2060      C2061   1.399       .  A
C2060      H2065   1.078       .  S
C2061      C2062   1.417   1_455  A
C2062      C2063   1.506       .  S
C2063      H2067   1.111       .  S
C2063      H2068   1.104       .  S
C2063      H2069   1.105       .  S
C2066      H2070   1.110       .  S
C2066      H2071   1.110       .  S
C2066      H2072   1.111       .  S
C2073      C2074   1.399       .  A
C2073      C2078   1.401       .  A
C2073      H2080   1.078       .  S
C2074      C2075   1.417   1_455  A
C2075      C2076   1.409       .  A
C2075      C2082   1.505       .  S
C2076      C2077   1.408   1_655  A
C2076      H2081   1.084       .  S
C2077      C2078   1.423       .  A
C2078      C2079   1.510       .  S
C2079      H2083   1.111       .  S
C2079      H2084   1.110       .  S
C2079      H2085   1.110       .  S
C2082      H2086   1.104       .  S
C2082      H2087   1.110       .  S
C2082      H2088   1.110       .  S
C2089      C2090   1.407       .  A
C2089      C2094   1.402       .  A
C2089      H2096   1.084       .  S
C2090      C2091   1.419       .  A
C2091      C2092   1.410       .  A
C2091      C2098   1.506       .  S
C2092      C2093   1.405       .  A
C2092      H2097   1.081       .  S
C2093      C2094   1.413       .  A
C2094      C2095   1.505       .  S
C2095      H2099   1.111       .  S
C2095      H2100   1.106       .  S
C2095      H2101   1.110       .  S
C2098      H2102   1.110       .  S
C2098      H2103   1.109       .  S
C2098      H2104   1.111       .  S
C2105      C2106   1.406       .  A
C2105      C2110   1.403       .  A
C2105      H2112   1.084       .  S
C2106      C2107   1.416       .  A
C2107      C2108   1.407       .  A
C2107      C2114   1.507       .  S
C2108      C2109   1.405       .  A
C2108      H2113   1.075       .  S
C2109      C2110   1.414       .  A
C2110      C2111   1.505       .  S
C2111      H2115   1.110       .  S
C2111      H2116   1.110       .  S
C2111      H2117   1.106       .  S
C2114      H2118   1.108       .  S
C2114      H2119   1.110       .  S
C2114      H2120   1.111       .  S
C2121      C2122   1.401   1_554  A
C2121      C2126   1.404       .  A
C2121      H2128   1.081       .  S
C2122      C2123   1.417       .  A
C2123      C2124   1.408       .  A
C2123      C2130   1.506       .  S
C2124      C2125   1.406   1_556  A
C2124      H2129   1.084       .  S
C2125      C2126   1.422       .  A
C2126      C2127   1.509       .  S
C2127      H2131   1.111       .  S
C2127      H2132   1.110       .  S
C2127      H2133   1.110       .  S
C2130      H2134   1.104       .  S
C2130      H2135   1.106       .  S
C2130      H2136   1.111       .  S
C2137      C2138   1.405       .  A
C2137      C2142   1.397       .  A
C2137      H2144   1.084       .  S
C2138      C2139   1.417   1_556  A
C2139      C2140   1.412       .  A
C2139      C2146   1.506       .  S
C2140      C2141   1.407   1_554  A
C2140      H2145   1.083       .  S
C2141      C2142   1.415       .  A
C2142      C2143   1.506       .  S
C2143      H2147   1.111       .  S
C2143      H2148   1.110       .  S
C2143      H2149   1.102       .  S
C2146      H2150   1.109       .  S
C2146      H2151   1.110       .  S
C2146      H2152   1.111       .  S
C2153      C2154   1.404       .  A
C2153      C2158   1.397       .  A
C2153      H2160   1.084       .  S
C2154      C2155   1.417       .  A
C2155      C2156   1.412       .  A
C2155      C2162   1.506       .  S
C2156      C2157   1.407       .  A
C2156      H2161   1.082       .  S
C2157      C2158   1.415       .  A
C2158      C2159   1.507       .  S
C2159      H2163   1.111       .  S
C2159      H2164   1.103       .  S
C2159      H2165   1.110       .  S
C2162      H2166   1.110       .  S
C2162      H2167   1.109       .  S
C2162      H2168   1.111       .  S
C2169      C2170   1.404       .  A
C2169      C2174   1.399       .  A
C2169      H2176   1.084       .  S
C2170      C2171   1.417   1_455  A
C2171      C2172   1.410       .  A
C2171      C2178   1.506       .  S
C2172      C2173   1.407   1_655  A
C2172      H2177   1.081       .  S
C2173      C2174   1.416       .  A
C2174      C2175   1.506       .  S
C2175      H2179   1.110       .  S
C2175      H2180   1.111       .  S
C2175      H2181   1.100       .  S
C2178      H2182   1.110       .  S
C2178      H2183   1.109       .  S
C2178      H2184   1.111       .  S
C2185      C2186   1.406       .  A
C2185      C2190   1.403       .  A
C2185      H2192   1.083       .  S
C2186      C2187   1.426   1_455  A
C2187      C2188   1.409       .  A
C2187      C2194   1.503       .  S
C2188      C2189   1.399   1_655  A
C2188      H2193   1.084       .  S
C2189      C2190   1.419       .  A
C2190      C2191   1.510       .  S
C2191      H2195   1.111       .  S
C2191      H2196   1.109       .  S
C2191      H2197   1.111       .  S
C2194      H2198   1.106       .  S
C2194      H2199   1.098       .  S
C2194      H2200   1.111       .  S
C2201      C2202   1.405       .  A
C2201      C2206   1.402       .  A
C2201      H2208   1.083       .  S
C2202      C2203   1.423       .  A
C2203      C2204   1.411       .  A
C2203      C2210   1.505       .  S
C2204      C2205   1.403       .  A
C2204      H2209   1.084       .  S
C2205      C2206   1.419       .  A
C2206      C2207   1.510       .  S
C2207      H2211   1.111       .  S
C2207      H2212   1.111       .  S
C2207      H2213   1.110       .  S
C2210      H2214   1.099       .  S
C2210      H2215   1.105       .  S
C2210      H2216   1.111       .  S
C2217      C2218   1.408   1_556  A
C2217      C2222   1.412       .  A
C2217      H2224   1.084       .  S
C2218      C2219   1.422       .  A
C2219      C2220   1.399       .  A
C2219      C2226   1.510       .  S
C2220      C2221   1.401   1_554  A
C2220      H2225   1.083       .  S
C2221      C2222   1.418       .  A
C2222      C2223   1.505       .  S
C2223      H2227   1.110       .  S
C2223      H2228   1.105       .  S
C2223      H2229   1.110       .  S
C2226      H2230   1.110       .  S
C2226      H2231   1.110       .  S
C2226      H2232   1.111       .  S
C2233      C2234   1.405   1_554  A
C2233      C2238   1.402       .  A
C2233      H2240   1.084       .  S
C2234      C2235   1.422       .  A
C2235      C2236   1.409       .  A
C2235      C2242   1.508       .  S
C2236      C2237   1.403   1_556  A
C2236      H2241   1.080       .  S
C2237      C2238   1.416       .  A
C2238      C2239   1.505       .  S
C2239      H2243   1.111       .  S
C2239      H2244   1.101       .  S
C2239      H2245   1.110       .  S
C2242      H2246   1.110       .  S
C2242      H2247   1.109       .  S
C2242      H2248   1.111       .  S
C2249      C2250   1.406       .  A
C2249      C2254   1.400       .  A
C2249      H2256   1.084       .  S
C2250      C2251   1.422       .  A
C2251      C2252   1.413       .  A
C2251      C2258   1.506       .  S
C2252      C2253   1.405       .  A
C2252      H2257   1.083       .  S
C2253      C2254   1.414       .  A
C2254      C2255   1.504       .  S
C2255      H2259   1.111       .  S
C2255      H2260   1.101       .  S
C2255      H2261   1.110       .  S
C2258      H2262   1.110       .  S
C2258      H2263   1.109       .  S
C2258      H2264   1.111       .  S
C2265      C2266   1.405       .  A
C2265      C2270   1.397       .  A
C2265      H2272   1.084       .  S
C2266      C2267   1.418       .  A
C2267      C2268   1.414       .  A
C2267      C2274   1.505       .  S
C2268      C2269   1.409       .  A
C2268      H2273   1.083       .  S
C2269      C2270   1.415       .  A
C2270      C2271   1.503       .  S
C2271      H2275   1.111       .  S
C2271      H2276   1.096       .  S
C2271      H2277   1.110       .  S
C2274      H2278   1.110       .  S
C2274      H2279   1.109       .  S
C2274      H2280   1.111       .  S
C2281      C2282   1.405       .  A
C2281      C2286   1.411       .  A
C2281      H2288   1.084       .  S
C2282      C2283   1.422       .  A
C2283      C2284   1.402       .  A
C2283      C2290   1.510       .  S
C2284      C2285   1.402       .  A
C2284      H2289   1.083       .  S
C2285      C2286   1.420       .  A
C2286      C2287   1.505       .  S
C2287      H2291   1.111       .  S
C2287      H2292   1.104       .  S
C2287      H2293   1.106       .  S
C2290      H2294   1.111       .  S
C2290      H2295   1.110       .  S
C2290      H2296   1.111       .  S
C2297      C2298   1.407       .  A
C2297      C2302   1.405       .  A
C2297      H2304   1.084       .  S
C2298      C2299   1.422       .  A
C2299      C2300   1.406       .  A
C2299      C2306   1.508       .  S
C2300      C2301   1.403       .  A
C2300      H2305   1.082       .  S
C2301      C2302   1.414       .  A
C2302      C2303   1.501       .  S
C2303      H2307   1.110       .  S
C2303      H2308   1.100       .  S
C2303      H2309   1.110       .  S
C2306      H2310   1.110       .  S
C2306      H2311   1.109       .  S
C2306      H2312   1.111       .  S
C2313      C2314   1.408       .  A
C2313      C2318   1.410       .  A
C2313      H2320   1.084       .  S
C2314      C2315   1.424       .  A
C2315      C2316   1.399       .  A
C2315      C2322   1.511       .  S
C2316      C2317   1.398       .  A
C2316      H2321   1.080       .  S
C2317      C2318   1.417       .  A
C2318      C2319   1.505       .  S
C2319      H2323   1.110       .  S
C2319      H2324   1.110       .  S
C2319      H2325   1.106       .  S
C2322      H2326   1.110       .  S
C2322      H2327   1.110       .  S
C2322      H2328   1.111       .  S
C2329      C2330   1.406       .  A
C2329      C2334   1.408       .  A
C2329      H2336   1.084       .  S
C2330      C2331   1.422       .  A
C2331      C2332   1.402       .  A
C2331      C2338   1.510       .  S
C2332      C2333   1.400       .  A
C2332      H2337   1.079       .  S
C2333      C2334   1.417       .  A
C2334      C2335   1.506       .  S
C2335      H2339   1.111       .  S
C2335      H2340   1.105       .  S
C2335      H2341   1.104       .  S
C2338      H2342   1.110       .  S
C2338      H2343   1.110       .  S
C2338      H2344   1.111       .  S
C2345      C2346   1.404       .  A
C2345      C2350   1.398       .  A
C2345      H2352   1.084       .  S
C2346      C2347   1.417       .  A
C2347      C2348   1.412       .  A
C2347      C2354   1.506       .  S
C2348      C2349   1.409       .  A
C2348      H2353   1.082       .  S
C2349      C2350   1.416       .  A
C2350      C2351   1.504       .  S
C2351      H2355   1.110       .  S
C2351      H2356   1.111       .  S
C2351      H2357   1.095       .  S
C2354      H2358   1.109       .  S
C2354      H2359   1.110       .  S
C2354      H2360   1.111       .  S
C2361      C2362   1.405       .  A
C2361      C2366   1.409       .  A
C2361      H2368   1.084       .  S
C2362      C2363   1.421       .  A
C2363      C2364   1.402       .  A
C2363      C2370   1.509       .  S
C2364      C2365   1.403       .  A
C2364      H2369   1.084       .  S
C2365      C2366   1.418       .  A
C2366      C2367   1.505       .  S
C2367      H2371   1.111       .  S
C2367      H2372   1.105       .  S
C2367      H2373   1.106       .  S
C2370      H2374   1.110       .  S
C2370      H2375   1.110       .  S
C2370      H2376   1.111       .  S
C2377      C2378   1.406       .  A
C2377      C2382   1.402       .  A
C2377      H2384   1.083       .  S
C2378      C2379   1.421       .  A
C2379      C2380   1.411       .  A
C2379      C2386   1.506       .  S
C2380      C2381   1.405       .  A
C2380      H2385   1.084       .  S
C2381      C2382   1.412       .  A
C2382      C2383   1.504       .  S
C2383      H2387   1.111       .  S
C2383      H2388   1.109       .  S
C2383      H2389   1.107       .  S
C2386      H2390   1.110       .  S
C2386      H2391   1.109       .  S
C2386      H2392   1.111       .  S
C2393      C2394   1.407       .  A
C2393      C2398   1.407       .  A
C2393      H2400   1.083       .  S
C2394      C2395   1.421       .  A
C2395      C2396   1.405       .  A
C2395      C2402   1.508       .  S
C2396      C2397   1.403       .  A
C2396      H2401   1.078       .  S
C2397      C2398   1.415       .  A
C2398      C2399   1.503       .  S
C2399      H2403   1.111       .  S
C2399      H2404   1.106       .  S
C2399      H2405   1.102       .  S
C2402      H2406   1.110       .  S
C2402      H2407   1.109       .  S
C2402      H2408   1.111       .  S
C2409      C2410   1.405       .  A
C2409      C2414   1.396       .  A
C2409      H2416   1.083       .  S
C2410      C2411   1.419       .  A
C2411      C2412   1.416       .  A
C2411      C2418   1.505       .  S
C2412      C2413   1.409       .  A
C2412      H2417   1.084       .  S
C2413      C2414   1.414       .  A
C2414      C2415   1.503       .  S
C2415      H2419   1.111       .  S
C2415      H2420   1.110       .  S
C2415      H2421   1.096       .  S
C2418      H2422   1.109       .  S
C2418      H2423   1.110       .  S
C2418      H2424   1.111       .  S
C2425      C2426   1.408       .  A
C2425      C2430   1.414       .  A
C2425      H2432   1.083       .  S
C2426      C2427   1.416       .  A
C2427      C2428   1.399       .  A
C2427      C2434   1.507       .  S
C2428      C2429   1.405       .  A
C2428      H2433   1.083       .  S
C2429      C2430   1.418       .  A
C2430      C2431   1.505       .  S
C2431      H2435   1.111       .  S
C2431      H2436   1.110       .  S
C2431      H2437   1.109       .  S
C2434      H2438   1.106       .  S
C2434      H2439   1.106       .  S
C2434      H2440   1.111       .  S
C2441      C2442   1.404       .  A
C2441      C2446   1.398       .  A
C2441      H2448   1.084       .  S
C2442      C2443   1.417       .  A
C2443      C2444   1.411       .  A
C2443      C2450   1.506       .  S
C2444      C2445   1.407       .  A
C2444      H2449   1.082       .  S
C2445      C2446   1.415       .  A
C2446      C2447   1.506       .  S
C2447      H2451   1.111       .  S
C2447      H2452   1.103       .  S
C2447      H2453   1.110       .  S
C2450      H2454   1.110       .  S
C2450      H2455   1.109       .  S
C2450      H2456   1.111       .  S
C2457      C2458   1.409       .  A
C2457      C2462   1.410       .  A
C2457      H2464   1.083       .  S
C2458      C2459   1.413       .  A
C2459      C2460   1.397       .  A
C2459      C2466   1.508       .  S
C2460      C2461   1.406       .  A
C2460      H2465   1.084       .  S
C2461      C2462   1.415       .  A
C2462      C2463   1.506       .  S
C2463      H2467   1.111       .  S
C2463      H2468   1.110       .  S
C2463      H2469   1.109       .  S
C2466      H2470   1.111       .  S
C2466      H2471   1.105       .  S
C2466      H2472   1.110       .  S
C2473      C2474   1.405       .  A
C2473      C2478   1.403       .  A
C2473      H2480   1.083       .  S
C2474      C2475   1.422       .  A
C2475      C2476   1.408       .  A
C2475      C2482   1.506       .  S
C2476      C2477   1.404       .  A
C2476      H2481   1.084       .  S
C2477      C2478   1.418       .  A
C2478      C2479   1.508       .  S
C2479      H2483   1.111       .  S
C2479      H2484   1.110       .  S
C2479      H2485   1.110       .  S
C2482      H2486   1.105       .  S
C2482      H2487   1.097       .  S
C2482      H2488   1.111       .  S
C2489      C2490   1.403       .  A
C2489      C2494   1.409       .  A
C2489      H2496   1.084       .  S
C2490      C2491   1.420       .  A
C2491      C2492   1.401       .  A
C2491      C2498   1.509       .  S
C2492      C2493   1.404       .  A
C2492      H2497   1.084       .  S
C2493      C2494   1.422       .  A
C2494      C2495   1.503       .  S
C2495      H2499   1.111       .  S
C2495      H2500   1.110       .  S
C2495      H2501   1.099       .  S
C2498      H2502   1.110       .  S
C2498      H2503   1.111       .  S
C2498      H2504   1.111       .  S
C2505      C2506   1.405       .  A
C2505      C2510   1.408       .  A
C2505      H2512   1.084       .  S
C2506      C2507   1.422       .  A
C2507      C2508   1.404       .  A
C2507      C2514   1.509       .  S
C2508      C2509   1.402       .  A
C2508      H2513   1.082       .  S
C2509      C2510   1.416       .  A
C2510      C2511   1.504       .  S
C2511      H2515   1.111       .  S
C2511      H2516   1.104       .  S
C2511      H2517   1.106       .  S
C2514      H2518   1.110       .  S
C2514      H2519   1.110       .  S
C2514      H2520   1.111       .  S
C2521      C2522   1.405       .  A
C2521      C2526   1.401       .  A
C2521      H2528   1.084       .  S
C2522      C2523   1.419       .  A
C2523      C2524   1.410       .  A
C2523      C2530   1.507       .  S
C2524      C2525   1.405       .  A
C2524      H2529   1.080       .  S
C2525      C2526   1.414       .  A
C2526      C2527   1.504       .  S
C2527      H2531   1.111       .  S
C2527      H2532   1.110       .  S
C2527      H2533   1.101       .  S
C2530      H2534   1.109       .  S
C2530      H2535   1.110       .  S
C2530      H2536   1.111       .  S
C2537      C2538   1.412       .  A
C2537      C2542   1.410       .  A
C2537      H2544   1.076       .  S
C2538      C2539   1.422       .  A
C2539      C2540   1.400       .  A
C2539      C2546   1.507       .  S
C2540      C2541   1.401       .  A
C2540      H2545   1.084       .  S
C2541      C2542   1.409       .  A
C2542      C2543   1.505       .  S
C2543      H2547   1.111       .  S
C2543      H2548   1.111       .  S
C2543      H2549   1.109       .  S
C2546      H2550   1.109       .  S
C2546      H2551   1.108       .  S
C2546      H2552   1.111       .  S
C2553      C2554   1.403       .  A
C2553      C2558   1.409       .  A
C2553      H2560   1.083       .  S
C2554      C2555   1.415       .  A
C2555      C2556   1.401       .  A
C2555      C2562   1.503       .  S
C2556      C2557   1.405       .  A
C2556      H2561   1.084       .  S
C2557      C2558   1.423       .  A
C2558      C2559   1.507       .  S
C2559      H2563   1.111       .  S
C2559      H2564   1.110       .  S
C2559      H2565   1.110       .  S
C2562      H2566   1.110       .  S
C2562      H2567   1.099       .  S
C2562      H2568   1.111       .  S
C2569      C2570   1.406       .  A
C2569      C2574   1.411       .  A
C2569      H2576   1.084       .  S
C2570      C2571   1.420       .  A
C2571      C2572   1.398       .  A
C2571      C2578   1.510       .  S
C2572      C2573   1.403       .  A
C2572      H2577   1.083       .  S
C2573      C2574   1.419       .  A
C2574      C2575   1.504       .  S
C2575      H2579   1.110       .  S
C2575      H2580   1.101       .  S
C2575      H2581   1.110       .  S
C2578      H2582   1.111       .  S
C2578      H2583   1.110       .  S
C2578      H2584   1.111       .  S
C2585      C2586   1.406       .  A
C2585      C2590   1.401       .  A
C2585      H2592   1.084       .  S
C2586      C2587   1.419       .  A
C2587      C2588   1.411       .  A
C2587      C2594   1.506       .  S
C2588      C2589   1.405       .  A
C2588      H2593   1.081       .  S
C2589      C2590   1.413       .  A
C2590      C2591   1.505       .  S
C2591      H2595   1.111       .  S
C2591      H2596   1.110       .  S
C2591      H2597   1.103       .  S
C2594      H2598   1.109       .  S
C2594      H2599   1.110       .  S
C2594      H2600   1.111       .  S
C2601      C2602   1.403       .  A
C2601      C2606   1.406       .  A
C2601      H2608   1.079       .  S
C2602      C2603   1.414       .  A
C2603      C2604   1.405       .  A
C2603      C2610   1.503       .  S
C2604      C2605   1.408       .  A
C2604      H2609   1.084       .  S
C2605      C2606   1.419       .  A
C2606      C2607   1.508       .  S
C2607      H2611   1.111       .  S
C2607      H2612   1.110       .  S
C2607      H2613   1.109       .  S
C2610      H2614   1.102       .  S
C2610      H2615   1.110       .  S
C2610      H2616   1.110       .  S
C2617      C2618   1.407       .  A
C2617      C2622   1.400       .  A
C2617      H2624   1.084       .  S
C2618      C2619   1.420       .  A
C2619      C2620   1.409       .  A
C2619      C2626   1.506       .  S
C2620      C2621   1.404       .  A
C2620      H2625   1.083       .  S
C2621      C2622   1.411       .  A
C2622      C2623   1.504       .  S
C2623      H2627   1.111       .  S
C2623      H2628   1.101       .  S
C2623      H2629   1.110       .  S
C2626      H2630   1.110       .  S
C2626      H2631   1.109       .  S
C2626      H2632   1.111       .  S
C2633      C2634   1.405       .  A
C2633      C2638   1.411       .  A
C2633      H2640   1.083       .  S
C2634      C2635   1.423       .  A
C2635      C2636   1.401       .  A
C2635      C2642   1.510       .  S
C2636      C2637   1.400       .  A
C2636      H2641   1.078       .  S
C2637      C2638   1.419       .  A
C2638      C2639   1.505       .  S
C2639      H2643   1.111       .  S
C2639      H2644   1.104       .  S
C2639      H2645   1.105       .  S
C2642      H2646   1.110       .  S
C2642      H2647   1.111       .  S
C2642      H2648   1.111       .  S
C2649      C2650   1.405       .  A
C2649      C2654   1.409       .  A
C2649      H2656   1.081       .  S
C2650      C2651   1.413       .  A
C2651      C2652   1.401       .  A
C2651      C2658   1.506       .  S
C2652      C2653   1.406       .  A
C2652      H2657   1.084       .  S
C2653      C2654   1.418       .  A
C2654      C2655   1.506       .  S
C2655      H2659   1.111       .  S
C2655      H2660   1.110       .  S
C2655      H2661   1.109       .  S
C2658      H2662   1.106       .  S
C2658      H2663   1.110       .  S
C2658      H2664   1.111       .  S
