geometry optimzed in LAMMPS
_audit_creation_date              2020-12-01 
_audit_creation_method            'lammps2cif' 
_symmetry_space_group_name_H-M    'P1' 
_symmetry_Int_Tables_number       1 
_symmetry_cell_setting            triclinic 
loop_ 
_symmetry_equiv_pos_as_xyz 
  x,y,z 
_cell_length_a                    31.93991209 
_cell_length_b                    31.611662607892267 
_cell_length_c                    32.08708267151353 
_cell_angle_alpha                 93.09748389266215 
_cell_angle_beta                  93.92308632158976 
_cell_angle_gamma                 92.39423037245214 
loop_ 
_atom_site_label 
_atom_site_type_symbol 
_atom_site_fract_x 
_atom_site_fract_y 
_atom_site_fract_z 
_atom_site_charge 
C1          C  0.34229699  0.38999776  0.34157267     0.85700
C2          C  0.31893890  0.35891312  0.36737851    -0.54500
C3          C  0.34345007  0.33391036  0.39151125     0.08600
C4          C  0.39180002  0.34296269  0.38669042     0.19600
C5          C  0.37270410  0.41513086  0.37364363    -0.55300
C6          C  0.39832095  0.39210992  0.39829083     0.08700
C7          C  0.36980636  0.36237374  0.31511933    -0.54800
C8          C  0.39633038  0.33742118  0.33740706     0.09300
H9          H  0.28497116  0.35852873  0.36835762     0.13800
H10         H  0.41264774  0.32320372  0.40584207    -0.00500
H11         H  0.37324331  0.44951626  0.37767082     0.14100
H12         H  0.36884186  0.36306236  0.28124837     0.13900
C13         C  0.16419899  0.10208907  0.15140086     0.85700
C14         C  0.13134362  0.12491203  0.17627320    -0.54500
C15         C  0.10314800  0.14678604  0.15226596     0.08600
C16         C  0.11099351  0.14329671  0.10486524     0.19600
C17         C  0.13722132  0.07367074  0.11874489    -0.55300
C18         C  0.10849848  0.09412382  0.09516034     0.08700
C19         C  0.18501074  0.13656705  0.12732484    -0.54800
C20         C  0.15839933  0.15908802  0.10298428     0.09300
H21         H  0.13013398  0.12339034  0.20979925     0.13800
H22         H  0.08847826  0.16054912  0.08490051    -0.00500
H23         H  0.13852847  0.03934045  0.11633214     0.14100
H24         H  0.21873234  0.14155757  0.12829478     0.13900
O25         O  0.02683598  0.48672723  0.41565470    -0.80900
O26         O  0.47333084  0.45766135  0.08800710    -0.81000
O27         O  0.07886537  0.48985836  0.52187344    -0.81000
O28         O  0.41343408  0.43060751  0.46575636    -0.80900
O29         O  0.03545391  0.44887451  0.05326106    -0.81000
O30         O  0.45683357  0.43910082  0.41743376    -0.80900
O31         O  0.41263967  0.45602544  0.04910741    -0.80900
O32         O  0.07536620  0.51397188  0.46269880    -0.81000
C33         C  0.06500359  0.49230658  0.42969999     1.08800
C34         C  0.43548787  0.44510887  0.08045217     1.08600
C35         C  0.06967472  0.45433734  0.03690256     1.08800
C36         C  0.42670474  0.41828572  0.43072559     1.08700
O37         O  0.40744190  0.01295247  0.43560650    -0.80900
O38         O  0.04958269  0.04189310  0.08299769    -0.81000
O39         O  0.04270911  0.06228177  0.45809572    -0.80900
O40         O  0.42352281  0.54461454  0.03115666    -0.80900
O41         O  0.46445159  0.53403263  0.08708187    -0.81000
O42         O  0.47691487  0.06317349  0.44084840    -0.80900
O43         O  0.36531314  0.98907568  0.48237089    -0.80900
O44         O  0.07486676  0.07043090  0.02921727    -0.81000
Co45       Co  0.46946054  0.00074750  0.43014656     1.51500
Co46       Co  0.00255116  0.49823510  0.05728377     1.51700
Co47       Co  0.03100430  0.03005623  0.50715440     1.51600
Co48       Co  0.42286273  0.48869432  0.99839283     1.51500
O49         O  0.48433058  0.49327016  0.49573756    -1.42900
C50         C  0.37115955  0.01081132  0.45084474     1.08700
C51         C  0.07554059  0.06866736  0.06803078     1.08800
C52         C  0.01297420  0.07977149  0.43993251     1.08700
C53         C  0.43037215  0.04600298  0.06726009     1.08700
O54         O  0.31789476  0.27076645  0.42428928    -0.80900
O55         O  0.28239511  0.22249304  0.05360644    -0.81000
O56         O  0.30333742  0.31336224  0.02927501    -0.81000
O57         O  0.23610813  0.15134646  0.45929754    -0.80900
O58         O  0.26146464  0.29031364  0.07630642    -0.81000
O59         O  0.28901914  0.18805073  0.43633411    -0.80900
O60         O  0.25550045  0.16262179  0.03127011    -0.80900
O61         O  0.29665238  0.33220605  0.44487484    -0.81000
C62         C  0.32102541  0.31069087  0.42397081     1.08800
C63         C  0.28437692  0.18361480  0.05311276     1.08600
C64         C  0.29441137  0.31105439  0.06692030     1.08800
C65         C  0.27084071  0.15264170  0.44324972     1.08700
O66         O  0.20728204  0.20748051  0.40281361    -0.80900
O67         O  0.17492357  0.27757239  0.02890212    -0.81000
O68         O  0.20895952  0.33116669  0.44770617    -0.80900
O69         O  0.17235204  0.18388989  0.03519436    -0.80900
O70         O  0.20412796  0.22027221  0.08855631    -0.81000
O71         O  0.23153348  0.29104152  0.39564033    -0.80900
O72         O  0.16842836  0.18824768  0.45328909    -0.80900
O73         O  0.21916887  0.33068847  0.53262406    -0.81000
Co74       Co  0.26045296  0.24089216  0.42054972     1.51500
Co75       Co  0.22829914  0.24574771  0.03929088     1.51700
Co76       Co  0.25643346  0.32179723  0.48824594     1.51600
Co77       Co  0.21666205  0.19771527  0.99403197     1.51500
O78         O  0.24656462  0.25685193  0.48208598    -1.42900
C79         C  0.17535137  0.18773169  0.41507580     1.08700
C80         C  0.18193489  0.31738928  0.03070519     1.08800
C81         C  0.20694376  0.31867025  0.40947335     1.08700
C82         C  0.17738872  0.19065247  0.07478839     1.08700
O83         O  0.03995421  0.32045898  0.27971991    -0.80900
O84         O  0.46537110  0.28492280  0.16036647    -0.81000
O85         O  0.10072800  0.25735103  0.20090552    -0.81000
O86         O  0.41259867  0.28799002  0.27895696    -0.80900
O87         O  0.04832389  0.28659587  0.16597960    -0.81000
O88         O  0.46557954  0.31000353  0.32546268    -0.80900
O89         O  0.46593675  0.31670169  0.22240492    -0.80900
O90         O  0.08985083  0.27436389  0.28333733    -0.81000
C91         C  0.07753420  0.31138547  0.29016071     1.08800
C92         C  0.45754143  0.31662441  0.18341096     1.08600
C93         C  0.08645460  0.28605441  0.17812711     1.08800
C94         C  0.42601004  0.30998606  0.31358553     1.08700
O95         O  0.45972650  0.22971850  0.31144675    -0.80900
O96         O  0.05014822  0.19873209  0.15030359    -0.81000
O97         O  0.05097537  0.19303528  0.28932067    -0.80900
O98         O  0.41652966  0.23719294  0.19315126    -0.80900
O99         O  0.46106313  0.19638467  0.16096573    -0.81000
O100        O  0.53303743  0.24684839  0.32983345    -0.80900
O101        O  0.44073941  0.20133429  0.25336063    -0.80900
O102        O  0.06593260  0.17184018  0.20992929    -0.81000
Co103      Co  0.49667442  0.27414466  0.28581993     1.51500
Co104      Co  0.00661395  0.24100816  0.16493364     1.51700
Co105      Co  0.07280239  0.22487324  0.24505594     1.51600
Co106      Co  0.45616706  0.25956870  0.24301081     1.51500
O107        O  0.51260985  0.24042625  0.22959205    -1.42900
C108        C  0.44040715  0.19992824  0.29108425     1.08700
C109        C  0.07042261  0.17273150  0.17140927     1.08800
C110        C  0.04194727  0.20797196  0.32462419     1.08700
C111        C  0.42364391  0.20674043  0.16652466     1.08700
O112        O  0.32063806  0.45846336  0.32109452    -0.80900
O113        O  0.28030776  0.01070521  0.17090209    -0.81000
O114        O  0.26957877  0.41119730  0.21595202    -0.81000
O115        O  0.27388772  0.08777956  0.28530502    -0.80900
O116        O  0.27404297  0.46853325  0.17768028    -0.81000
O117        O  0.31863901  0.04113590  0.30514634    -0.80900
O118        O  0.29533546  0.06337287  0.21298004    -0.80900
O119        O  0.27838951  0.40324511  0.29952985    -0.81000
C120        C  0.31268368  0.41872912  0.31808445     1.08800
C121        C  0.30266616  0.04408276  0.17948574     1.08600
C122        C  0.28466402  0.43076384  0.18650729     1.08800
C123        C  0.31060046  0.07873580  0.29877033     1.08700
O124        O  0.23439147  0.04409038  0.33418869    -0.80900
O125        O  0.20719551  0.45843272  0.16897415    -0.81000
O126        O  0.19523090  0.43929068  0.30190483    -0.80900
O127        O  0.21372688  0.09166083  0.21191519    -0.80900
O128        O  0.20305665  0.03913089  0.16419416    -0.81000
O129        O  0.24061087  0.45975405  0.35256568    -0.80900
O130        O  0.19362288  0.04007967  0.27555886    -0.80900
O131        O  0.18429159  0.44122757  0.22561069    -0.81000
Co132      Co  0.27806017  0.00102204  0.32393664     1.51500
Co133      Co  0.23275596  0.50564841  0.20681922     1.51700
Co134      Co  0.23369100  0.42696244  0.26052208     1.51600
Co135      Co  0.24294687  0.04653994  0.24264069     1.51500
O136        O  0.26082985  0.48670754  0.26173484    -1.42900
C137        C  0.20016955  0.05203789  0.31380062     1.08700
C138        C  0.18432612  0.43436823  0.18723980     1.08800
C139        C  0.20370216  0.44847062  0.33958530     1.08700
C140        C  0.19550869  0.07699404  0.17685056     1.08700
C141        C  0.34576168  0.10989461  0.30356801    -0.06300
C142        C  0.33973622  0.15186136  0.31691959    -0.33700
C143        C  0.37352634  0.18158636  0.31980367     0.35600
C144        C  0.41317198  0.16910134  0.30842909    -0.06600
C145        C  0.41973234  0.12679558  0.29779440    -0.33600
C146        C  0.38641712  0.09706818  0.29526851     0.35500
H147        H  0.30884385  0.16171231  0.32421470     0.15800
O148        O  0.36688079  0.22333200  0.33024143    -0.61100
H149        H  0.44986581  0.11752833  0.28753521     0.15900
O150        O  0.39307828  0.05641051  0.28067890    -0.61200
H151        H  0.41012779  0.04373551  0.30338922     0.42800
H152        H  0.35162823  0.23408167  0.30527174     0.42800
C153        C  0.11328012  0.32203988  0.16719895    -0.06300
C154        C  0.09400628  0.36070485  0.16091200    -0.33700
C155        C  0.11798747  0.39831241  0.16114017     0.35600
C156        C  0.16163320  0.39740198  0.16707659    -0.06600
C157        C  0.18130082  0.35851518  0.16698551    -0.33600
C158        C  0.15718501  0.32054204  0.16724728     0.35500
H159        H  0.06014395  0.36258502  0.15982883     0.15800
O160        O  0.09840765  0.43613203  0.16122810    -0.61100
H161        H  0.21520345  0.35778238  0.17091163     0.15900
O162        O  0.17651823  0.28260949  0.16894140    -0.61200
H163        H  0.19263630  0.28350293  0.19645755     0.42800
H164        H  0.09913252  0.44530151  0.13210324     0.42800
C165        C  0.31046244  0.40616245  0.15897820    -0.06300
C166        C  0.32031749  0.36507827  0.17040988    -0.33700
C167        C  0.32038770  0.33230503  0.13969364     0.35600
C168        C  0.31442431  0.34180038  0.09768056    -0.06600
C169        C  0.31461470  0.38407632  0.08667103    -0.33600
C170        C  0.31265489  0.41651225  0.11717648     0.35500
H171        H  0.32112865  0.35695818  0.20284143     0.15800
O172        O  0.32228407  0.29105732  0.15083084    -0.61100
H173        H  0.31028355  0.39171651  0.05416097     0.15900
O174        O  0.30684905  0.45686866  0.10504213    -0.61200
H175        H  0.27719385  0.45676701  0.09357940     0.42800
H176        H  0.29371928  0.28298046  0.15886394     0.42800
C177        C  0.15593309  0.15402930  0.38534573    -0.06300
C178        C  0.16229539  0.15885367  0.34302115    -0.33700
C179        C  0.17230914  0.12422918  0.31709171     0.35600
C180        C  0.17338283  0.08352216  0.33286167    -0.06600
C181        C  0.15971003  0.07758589  0.37277334    -0.33600
C182        C  0.15067349  0.11240559  0.39906359     0.35500
H183        H  0.16649547  0.19044485  0.33190287     0.15800
O184        O  0.18868066  0.13167167  0.27960444    -0.61500
H185        H  0.16062065  0.04653988  0.38528620     0.15900
O186        O  0.14430504  0.10563563  0.44007651    -0.61200
H187        H  0.11492569  0.11324512  0.44385840     0.42800
H188        H  0.17069484  0.15240907  0.26584734     0.42800
C189        C  0.10722791  0.33897979  0.31788483    -0.06300
C190        C  0.09956592  0.34204400  0.36052127    -0.33700
C191        C  0.13272516  0.34026542  0.39154942     0.35600
C192        C  0.17422354  0.33521301  0.37997961    -0.06600
C193        C  0.18239812  0.33936118  0.33797873    -0.33600
C194        C  0.14933174  0.34180438  0.30717227     0.35500
H195        H  0.06754685  0.33971091  0.36967182     0.15800
O196        O  0.12346826  0.33848887  0.43251817    -0.61100
H197        H  0.21416215  0.33720398  0.32844669     0.15900
O198        O  0.15810992  0.34112428  0.26594205    -0.61200
H199        H  0.16506661  0.31145460  0.25876923     0.42800
H200        H  0.11768105  0.30800039  0.43664541     0.42800
C201        C  0.31872702  0.16726778  0.08009829    -0.06300
C202        C  0.31400482  0.16971718  0.12352716    -0.33700
C203        C  0.34849284  0.17897184  0.15260728     0.35600
C204        C  0.38870489  0.18627694  0.13855081    -0.06600
C205        C  0.39435221  0.17885370  0.09569946    -0.33600
C206        C  0.35972047  0.17014092  0.06657410     0.35500
H207        H  0.28302424  0.16988296  0.13490713     0.15800
O208        O  0.34201426  0.18404905  0.19438069    -0.61100
H209        H  0.42516804  0.18394204  0.08418837     0.15900
O210        O  0.36573672  0.16957076  0.02461638    -0.61200
H211        H  0.36624285  0.19972877  0.01744189     0.42800
H212        H  0.34768175  0.15620683  0.20586909     0.42800
C213        C  0.33961955  0.04032967  0.43629808    -0.06300
C214        C  0.30021762  0.03892791  0.45272417    -0.33700
C215        C  0.27567552  0.07431023  0.45231548     0.35600
C216        C  0.29106427  0.11221511  0.43584535    -0.06600
C217        C  0.32808084  0.11184728  0.41517661    -0.33600
C218        C  0.35203883  0.07615076  0.41456927     0.35500
H219        H  0.28987914  0.01168808  0.46906972     0.15800
O220        O  0.23884788  0.07258208  0.47191857    -0.61100
H221        H  0.34003506  0.14025484  0.40181449     0.15900
O222        O  0.38988513  0.07895539  0.39693333    -0.61200
H223        H  0.38679977  0.05863605  0.37215718     0.42800
H224        H  0.21755281  0.05959725  0.45052333     0.42800
C225        C  0.15101009  0.35072250  0.03221580    -0.06300
C226        C  0.16731290  0.39327607  0.03592361    -0.33700
C227        C  0.14132387  0.42727509  0.03700494     0.35600
C228        C  0.09794444  0.41930343  0.03498440    -0.06600
C229        C  0.08110685  0.37716033  0.03091570    -0.33600
C230        C  0.10744247  0.34284387  0.02937696     0.35500
H231        H  0.20081880  0.40088349  0.03841874     0.15800
O232        O  0.15849489  0.46798985  0.04319947    -0.61100
H233        H  0.04739553  0.37086665  0.02856839     0.15900
O234        O  0.09038047  0.30225954  0.52403909    -0.61200
H235        H  0.08677396  0.29320542  0.55271203     0.42800
H236        H  0.17918050  0.47138570  0.02180263     0.42800
C237        C  0.09917283  0.47339715  0.40848123    -0.06300
C238        C  0.13981281  0.47705312  0.42884192    -0.33700
C239        C  0.17450392  0.46504619  0.40828955     0.35600
C240        C  0.16877972  0.44961267  0.36651803    -0.06600
C241        C  0.12778171  0.44184318  0.34767301    -0.33600
C242        C  0.09300018  0.45328685  0.36850842     0.35500
H243        H  0.14471065  0.98546203  0.46569039     0.15800
O244        O  0.21430438  0.97082218  0.43149795    -0.61100
H245        H  0.12249431  0.42927346  0.31558785     0.15900
O246        O  0.05360975  0.44621217  0.34885993    -0.61200
H247        H  0.04925243  0.47078130  0.33142788     0.42800
H248        H  0.22126892  0.94323266  0.44293941     0.42800
C249        C  0.39842877  0.06244934  0.09486363    -0.06300
C250        C  0.35603233  0.06009960  0.07990658    -0.33700
C251        C  0.32413709  0.05766696  0.10784009     0.35600
C252        C  0.33459754  0.05798184  0.15127619    -0.06600
C253        C  0.37719257  0.56677251  0.16947643    -0.33600
C254        C  0.40938238  0.57041896  0.14215668     0.35500
H255        H  0.34754819  0.05633631  0.04659634     0.15800
O256        O  0.28268402  0.05463944  0.09277276    -0.61100
H257        H  0.38510631  0.56763571  0.20279095     0.15900
O258        O  0.45014762  0.57510485  0.15872147    -0.61200
H259        H  0.45822505  0.60556707  0.15641837     0.42800
H260        H  0.27999591  0.03103111  0.07101248     0.42800
C261        C  0.43615107  0.35053368  0.16223387    -0.06300
C262        C  0.41937488  0.34091504  0.12077312    -0.33700
C263        C  0.41274896  0.37279128  0.09344335     0.35600
C264        C  0.41973275  0.41504334  0.10863152    -0.06600
C265        C  0.42838996  0.42476078  0.15171003    -0.33600
C266        C  0.43803178  0.39264332  0.17850719     0.35500
H267        H  0.41610953  0.30843759  0.10786545     0.15800
O268        O  0.40768328  0.36195112  0.05122438    -0.61100
H269        H  0.93410402  0.45749615  0.16324211     0.15900
O270        O  0.95382315  0.40312584  0.21871768    -0.61200
H271        H  0.98433472  0.40894523  0.21674902     0.42800
H272        H  0.38140366  0.37454807  0.04075338     0.42800
C273        C  0.02102903  0.11440824  0.41312014    -0.06300
C274        C  0.54714039  0.10659880  0.38097020    -0.33700
C275        C  0.55451904  0.13705209  0.35257976     0.35600
C276        C  0.03768199  0.17757600  0.35755575    -0.06600
C277        C  0.01171567  0.18565913  0.39049731    -0.33600
C278        C  0.00232536  0.15370749  0.41757198     0.35500
H279        H  0.56072866  0.07589471  0.37681023     0.15800
O280        O  0.57767518  0.12629232  0.31947112    -0.61100
H281        H  0.99706829  0.21582339  0.39396464     0.15900
O282        O  0.97526033  0.16115443  0.44825022    -0.61200
H283        H  0.94682023  0.15337211  0.43477579     0.42800
H284        H  0.55837009  0.10831179  0.29962656     0.42800
C285        C  0.34229605  0.38998007  0.84157973     0.85700
C286        C  0.31893205  0.35889968  0.86738754    -0.54500
C287        C  0.34344007  0.33390187  0.89152987     0.08600
C288        C  0.39179169  0.34295350  0.88671361     0.19600
C289        C  0.37269474  0.41511825  0.87365166    -0.55300
C290        C  0.39830693  0.39210177  0.89830682     0.08700
C291        C  0.36981046  0.36235394  0.81513637    -0.54800
C292        C  0.39633215  0.33740651  0.83743132     0.09300
H293        H  0.28496393  0.35851590  0.86836168     0.13800
H294        H  0.41263787  0.32319932  0.90587227    -0.00500
H295        H  0.37323122  0.44950405  0.87767393     0.14100
H296        H  0.36885287  0.36303977  0.78126539     0.13900
C297        C  0.16421691  0.10213858  0.65140265     0.85700
C298        C  0.13133797  0.12493626  0.67626298    -0.54500
C299        C  0.10314438  0.14680475  0.65224850     0.08600
C300        C  0.11101652  0.14333671  0.60485281     0.19600
C301        C  0.13726949  0.07372144  0.61872373    -0.55300
C302        C  0.10854967  0.09416845  0.59513316     0.08700
C303        C  0.18502926  0.13663434  0.62735016    -0.54800
C304        C  0.15842043  0.15914763  0.60299839     0.09300
H305        H  0.13011217  0.12340212  0.70978653     0.13800
H306        H  0.08850290  0.16058403  0.58488132    -0.00500
H307        H  0.13858752  0.03939228  0.61630206     0.14100
H308        H  0.21874958  0.14163486  0.62833569     0.13900
O309        O  0.02688080  0.48673482  0.91567040    -0.80900
O310        O  0.47336322  0.45766655  0.58801305    -0.81000
O311        O  0.07890183  0.48987422  0.02189862    -0.81000
O312        O  0.41340484  0.43061030  0.96576533    -0.80900
O313        O  0.03541697  0.44885375  0.55323131    -0.81000
O314        O  0.45680557  0.43910340  0.91744331    -0.80900
O315        O  0.41267696  0.45601509  0.54910312    -0.80900
O316        O  0.07540645  0.51397401  0.96272302    -0.81000
C317        C  0.06504797  0.49231454  0.92971976     1.08800
C318        C  0.43552342  0.44510484  0.58045196     1.08600
C319        C  0.06964074  0.45432109  0.53687878     1.08800
C320        C  0.42668184  0.41828486  0.93073901     1.08700
O321        O  0.40750272  0.01300570  0.93564529    -0.80900
O322        O  0.04959538  0.04199361  0.58299031    -0.81000
O323        O  0.04261851  0.06230913  0.95810268    -0.80900
O324        O  0.42355598  0.54460837  0.53115763    -0.80900
O325        O  0.46447390  0.53403006  0.58708974    -0.81000
O326        O  0.47701059  0.06320178  0.94091492    -0.80900
O327        O  0.36537994  0.98910424  0.98240517    -0.80900
O328        O  0.07501154  0.07035823  0.52918502    -0.81000
Co329      Co  0.46951859  0.00078196  0.93017669     1.51500
Co330      Co  0.00251968  0.49821884  0.55727169     1.51700
Co331      Co  0.03090371  0.03008982  0.00715966     1.51600
Co332      Co  0.42289604  0.48868928  0.49839110     1.51500
O333        O  0.48429832  0.49327533  0.99573407    -1.42900
C334        C  0.37122210  0.01085477  0.95088831     1.08700
C335        C  0.07560862  0.06869624  0.56800446     1.08800
C336        C  0.01288396  0.07976433  0.93990208     1.08700
C337        C  0.43031918  0.04598491  0.56723185     1.08700
O338        O  0.31788769  0.27076295  0.92431844    -0.80900
O339        O  0.28243131  0.22252132  0.55358323    -0.81000
O340        O  0.30336175  0.31338115  0.52925151    -0.81000
O341        O  0.23608698  0.15133381  0.95927047    -0.80900
O342        O  0.26148920  0.29034387  0.57628488    -0.81000
O343        O  0.28901478  0.18805003  0.93635507    -0.80900
O344        O  0.25551516  0.16264840  0.53128740    -0.80900
O345        O  0.29663388  0.33220045  0.94489230    -0.81000
C346        C  0.32101261  0.31068682  0.92399252     1.08800
C347        C  0.28440449  0.18364322  0.55310988     1.08600
C348        C  0.29444045  0.31107317  0.56689714     1.08800
C349        C  0.27083495  0.15263715  0.94325187     1.08700
O350        O  0.20727776  0.20747649  0.90281955    -0.80900
O351        O  0.17495428  0.27759724  0.52890026    -0.81000
O352        O  0.20893800  0.33114683  0.94772255    -0.80900
O353        O  0.17236462  0.18394045  0.53520337    -0.80900
O354        O  0.20416964  0.22030958  0.58855602    -0.81000
O355        O  0.23152800  0.29103441  0.89565702    -0.80900
O356        O  0.16840216  0.18826097  0.95328330    -0.80900
O357        O  0.21914930  0.33064920  0.03264275    -0.81000
Co358      Co  0.26044739  0.24088614  0.92056638     1.51500
Co359      Co  0.22832932  0.24577315  0.53927943     1.51700
Co360      Co  0.25641317  0.32177999  0.98826430     1.51600
Co361      Co  0.21668075  0.19773798  0.49404010     1.51500
O362        O  0.24654977  0.25683418  0.98210161    -1.42900
C363        C  0.17533000  0.18774818  0.91507125     1.08700
C364        C  0.18195729  0.31741584  0.53070908     1.08800
C365        C  0.20692764  0.31865283  0.90948910     1.08700
C366        C  0.17741456  0.19070171  0.57479645     1.08700
O367        O  0.03994771  0.32044014  0.77970008    -0.80900
O368        O  0.46538601  0.28491727  0.66038818    -0.81000
O369        O  0.10070796  0.25732312  0.70088750    -0.81000
O370        O  0.41261378  0.28798462  0.77898115    -0.80900
O371        O  0.04831465  0.28658968  0.66596556    -0.81000
O372        O  0.46558920  0.31000020  0.82549192    -0.80900
O373        O  0.46594711  0.31670464  0.72242278    -0.80900
O374        O  0.08983239  0.27433234  0.78332209    -0.81000
C375        C  0.07752299  0.31135644  0.79014912     1.08800
C376        C  0.45755599  0.31662255  0.68342745     1.08600
C377        C  0.08644687  0.28602901  0.67810478     1.08800
C378        C  0.42601971  0.30997751  0.81361291     1.08700
O379        O  0.45975386  0.22971585  0.81147457    -0.80900
O380        O  0.05012809  0.19873129  0.65027676    -0.81000
O381        O  0.05093561  0.19301151  0.78929424    -0.80900
O382        O  0.41654703  0.23719189  0.69317670    -0.80900
O383        O  0.46108129  0.19637977  0.66099772    -0.81000
O384        O  0.53306355  0.24686158  0.82986292    -0.80900
O385        O  0.44076420  0.20133759  0.75338607    -0.80900
O386        O  0.06588885  0.17182241  0.70989786    -0.81000
Co387      Co  0.49669125  0.27414789  0.78584789     1.51500
Co388      Co  0.00659562  0.24100739  0.66490984     1.51700
Co389      Co  0.07277284  0.22484828  0.74503364     1.51600
Co390      Co  0.45618506  0.25957168  0.74303423     1.51500
O391        O  0.51263005  0.24043236  0.72961799    -1.42900
C392        C  0.44043310  0.19992869  0.79110958     1.08700
C393        C  0.07039727  0.17272717  0.67138206     1.08800
C394        C  0.04190580  0.20795058  0.82459650     1.08700
C395        C  0.42366217  0.20674019  0.66654976     1.08700
O396        O  0.32066345  0.45844118  0.82106031    -0.80900
O397        O  0.28027667  0.01073679  0.67091587    -0.81000
O398        O  0.26959168  0.41116794  0.71595248    -0.81000
O399        O  0.27387843  0.08783083  0.78531236    -0.80900
O400        O  0.27403869  0.46850153  0.67767408    -0.81000
O401        O  0.31861871  0.04118449  0.80516552    -0.80900
O402        O  0.29534762  0.06339448  0.71299539    -0.80900
O403        O  0.27839499  0.40322731  0.79953598    -0.81000
C404        C  0.31269455  0.41870896  0.81807715     1.08800
C405        C  0.30265484  0.04410285  0.67949500     1.08600
C406        C  0.28466881  0.43073567  0.68650351     1.08800
C407        C  0.31058747  0.07878353  0.79878249     1.08700
O408        O  0.23436006  0.04415247  0.83418898    -0.80900
O409        O  0.20719757  0.45839834  0.66896891    -0.81000
O410        O  0.19525246  0.43927746  0.80191219    -0.80900
O411        O  0.21374932  0.09171487  0.71191431    -0.80900
O412        O  0.20303950  0.03916831  0.66421890    -0.81000
O413        O  0.24064763  0.45975877  0.85255890    -0.80900
O414        O  0.19361138  0.04013845  0.77554528    -0.80900
O415        O  0.18430052  0.44118042  0.72560494    -0.81000
Co416      Co  0.27803709  0.00108292  0.82396332     1.51500
Co417      Co  0.23275340  0.50561823  0.70681070     1.51700
Co418      Co  0.23370261  0.42693754  0.76052299     1.51600
Co419      Co  0.24294897  0.04658596  0.74264707     1.51500
O420        O  0.26083639  0.48668691  0.76172335    -1.42900
C421        C  0.20014437  0.05209807  0.81378715     1.08700
C422        C  0.18434160  0.43432040  0.68723429     1.08800
C423        C  0.20373600  0.44847071  0.83958969     1.08700
C424        C  0.19551679  0.07704198  0.67685913     1.08700
C425        C  0.34575559  0.10993149  0.80357224    -0.06300
C426        C  0.33974891  0.15189681  0.81694058    -0.33700
C427        C  0.37355200  0.18160664  0.81983403     0.35600
C428        C  0.41319047  0.16910754  0.80845052    -0.06600
C429        C  0.41973051  0.12680188  0.79779588    -0.33600
C430        C  0.38640260  0.09709018  0.79526022     0.35500
H431        H  0.30886250  0.16175767  0.82424530     0.15800
O432        O  0.36692696  0.22335264  0.83029163    -0.61100
H433        H  0.44985771  0.11752498  0.78752814     0.15900
O434        O  0.39304367  0.05643401  0.78065215    -0.61200
H435        H  0.41006379  0.04373231  0.80336716     0.42800
H436        H  0.35165638  0.23411447  0.80533816     0.42800
C437        C  0.11329351  0.32199365  0.66716171    -0.06300
C438        C  0.09403659  0.36065624  0.66081067    -0.33700
C439        C  0.11802860  0.39825877  0.66105292     0.35600
C440        C  0.16166815  0.39734401  0.66706703    -0.06600
C441        C  0.18132925  0.35845458  0.66702948    -0.33600
C442        C  0.15720217  0.32048647  0.66727371     0.35500
H443        H  0.06017322  0.36254307  0.65967063     0.15800
O444        O  0.09845514  0.43608083  0.66108207    -0.61100
H445        H  0.21522875  0.35771745  0.67100716     0.15900
O446        O  0.17652470  0.28255013  0.66901217    -0.61200
H447        H  0.19265815  0.28347449  0.69652170     0.42800
H448        H  0.09925951  0.44524783  0.63196240     0.42800
C449        C  0.31047168  0.40614313  0.65897184    -0.06300
C450        C  0.32033385  0.36505860  0.67039520    -0.33700
C451        C  0.32042444  0.33229623  0.63967042     0.35600
C452        C  0.31446917  0.34180431  0.59766019    -0.06600
C453        C  0.31465921  0.38408302  0.58666263    -0.33600
C454        C  0.31267578  0.41650724  0.61717460     0.35500
H455        H  0.32113672  0.35692793  0.70282332     0.15800
O456        O  0.32232756  0.29104474  0.65079473    -0.61100
H457        H  0.31033546  0.39173234  0.55415454     0.15900
O458        O  0.30685429  0.45686299  0.60504674    -0.61200
H459        H  0.27719987  0.45675007  0.59357968     0.42800
H460        H  0.29376200  0.28295698  0.65881847     0.42800
C461        C  0.15588672  0.15407065  0.88532854    -0.06300
C462        C  0.16225506  0.15890663  0.84300640    -0.33700
C463        C  0.17227660  0.12428762  0.81707308     0.35600
C464        C  0.17334446  0.08357683  0.83283587    -0.06600
C465        C  0.15964931  0.07763012  0.87273634    -0.33600
C466        C  0.15060772  0.11244350  0.89903101     0.35500
H467        H  0.16646480  0.19050120  0.83189883     0.15800
O468        O  0.18866198  0.13173878  0.77959396    -0.61500
H469        H  0.16055016  0.04658057  0.88524076     0.15900
O470        O  0.14422305  0.10566220  0.94003819    -0.61200
H471        H  0.11484844  0.11328999  0.94381650     0.42800
H472        H  0.17067105  0.15246654  0.76582927     0.42800
C473        C  0.10721500  0.33894073  0.81788644    -0.06300
C474        C  0.09954539  0.34199537  0.86052138    -0.33700
C475        C  0.13270070  0.34022009  0.89155469     0.35600
C476        C  0.17420428  0.33518651  0.87999232    -0.06600
C477        C  0.18238388  0.33934062  0.83799355    -0.33600
C478        C  0.14932083  0.34177298  0.80718164     0.35500
H479        H  0.06752462  0.33965191  0.86966586     0.15800
O480        O  0.12343630  0.33842743  0.93251992    -0.61100
H481        H  0.21415076  0.33719404  0.82846676     0.15900
O482        O  0.15810646  0.34109203  0.76595384    -0.61200
H483        H  0.16505779  0.31142098  0.75878343     0.42800
H484        H  0.11766067  0.30793500  0.93663866     0.42800
C485        C  0.31875572  0.16729981  0.58009762    -0.06300
C486        C  0.31402761  0.16973404  0.62352522    -0.33700
C487        C  0.34851174  0.17897810  0.65261237     0.35600
C488        C  0.38872647  0.18628794  0.63856460    -0.06600
C489        C  0.39437961  0.17888509  0.59571213    -0.33600
C490        C  0.35975156  0.17018393  0.56657996     0.35500
H491        H  0.28304620  0.16989575  0.63490118     0.15800
O492        O  0.34202687  0.18404082  0.69438539    -0.61100
H493        H  0.42519726  0.18398086  0.58420736     0.15900
O494        O  0.36577364  0.16963495  0.52462413    -0.61200
H495        H  0.36628095  0.19979742  0.51746447     0.42800
H496        H  0.34768630  0.15619298  0.70586371     0.42800
C497        C  0.33967042  0.04036322  0.93634721    -0.06300
C498        C  0.30027115  0.03895046  0.95278032    -0.33700
C499        C  0.27571073  0.07431858  0.95235728     0.35600
C500        C  0.29107724  0.11221977  0.93586521    -0.06600
C501        C  0.32809271  0.11186156  0.91519414    -0.33600
C502        C  0.35206938  0.07617857  0.91460091     0.35500
H503        H  0.28994758  0.01171369  0.96913858     0.15800
O504        O  0.23888691  0.07258216  0.97196605    -0.61100
H505        H  0.34003037  0.14026767  0.90181762     0.15900
O506        O  0.38991098  0.07899168  0.89695688    -0.61200
H507        H  0.38682093  0.05867740  0.87217357     0.42800
H508        H  0.21756367  0.05971823  0.95053119     0.42800
C509        C  0.15102024  0.35073717  0.53224769    -0.06300
C510        C  0.16730716  0.39329558  0.53599429    -0.33700
C511        C  0.14130300  0.42728373  0.53705316     0.35600
C512        C  0.09792392  0.41929653  0.53498143    -0.06600
C513        C  0.08110260  0.37714822  0.53089512    -0.33600
C514        C  0.10745339  0.34284267  0.52937169     0.35500
H515        H  0.20081113  0.40091480  0.53852762     0.15800
O516        O  0.15845633  0.46800329  0.54326960    -0.61100
H517        H  0.04739270  0.37084252  0.52851640     0.15900
O518        O  0.09035377  0.30226536  0.02407375    -0.61200
H519        H  0.08675111  0.29323252  0.05275481     0.42800
H520        H  0.17913406  0.47142215  0.52186962     0.42800
C521        C  0.09922168  0.47341526  0.90849956    -0.06300
C522        C  0.13986800  0.47710887  0.92884468    -0.33700
C523        C  0.17455629  0.46509410  0.90829241     0.35600
C524        C  0.16882366  0.44961925  0.86653408    -0.06600
C525        C  0.12782298  0.44181937  0.84770654    -0.33600
C526        C  0.09304442  0.45327057  0.86854235     0.35500
H527        H  0.14468132  0.98565601  0.96569077     0.15800
O528        O  0.21428613  0.97102442  0.93151771    -0.61100
H529        H  0.12252982  0.42922202  0.81563121     0.15900
O530        O  0.05365107  0.44616846  0.84890774    -0.61200
H531        H  0.04927904  0.47072195  0.83145733     0.42800
H532        H  0.22129807  0.94346009  0.94298690     0.42800
C533        C  0.39838831  0.06244921  0.59483858    -0.06300
C534        C  0.35598846  0.06009471  0.57989341    -0.33700
C535        C  0.32410281  0.05766522  0.60783732     0.35600
C536        C  0.33457749  0.05799035  0.65127160    -0.06600
C537        C  0.37718507  0.56674333  0.66946584    -0.33600
C538        C  0.40938146  0.57039472  0.64215434     0.35500
H539        H  0.34749467  0.05632191  0.54658529     0.15800
O540        O  0.28264545  0.05463299  0.59278303    -0.61100
H541        H  0.38509021  0.56761068  0.70278269     0.15900
O542        O  0.45014294  0.57508976  0.65872875    -0.61200
H543        H  0.45821176  0.60555503  0.65643481     0.42800
H544        H  0.27995606  0.03104030  0.57100607     0.42800
C545        C  0.43617282  0.35053083  0.66224070    -0.06300
C546        C  0.41941206  0.34090977  0.62077479    -0.33700
C547        C  0.41279344  0.37278424  0.59344160     0.35600
C548        C  0.41976938  0.41503686  0.60862934    -0.06600
C549        C  0.42841322  0.42475688  0.65170903    -0.33600
C550        C  0.43804590  0.39264122  0.67851152     0.35500
H551        H  0.41615190  0.30843200  0.60786760     0.15800
O552        O  0.40774027  0.36194282  0.55122254    -0.61100
H553        H  0.93409158  0.45749708  0.66323903     0.15900
O554        O  0.95383616  0.40312533  0.71870390    -0.61200
H555        H  0.98434628  0.40893702  0.71671780     0.42800
H556        H  0.38144949  0.37452016  0.54074827     0.42800
C557        C  0.02093955  0.11439235  0.91308192    -0.06300
C558        C  0.54722915  0.10661764  0.88100405    -0.33700
C559        C  0.55458499  0.13707141  0.85260783     0.35600
C560        C  0.03762398  0.17755605  0.85752539    -0.06600
C561        C  0.01164333  0.18564262  0.89045449    -0.33600
C562        C  0.00223820  0.15369308  0.91752571     0.35500
H563        H  0.56081859  0.07591528  0.87683443     0.15800
O564        O  0.57772020  0.12631249  0.81948308    -0.61100
H565        H  0.99699822  0.21580871  0.89391532     0.15900
O566        O  0.97516369  0.16114431  0.94819438    -0.61200
H567        H  0.94672513  0.15335930  0.93471187     0.42800
H568        H  0.55840782  0.10833106  0.79965220     0.42800
C569        C  0.34257621  0.88950464  0.33855736     0.85700
C570        C  0.31893372  0.85993648  0.36555759    -0.54500
C571        C  0.34290186  0.83451556  0.38960162     0.08600
C572        C  0.39136235  0.84159144  0.38332116     0.19600
C573        C  0.37460630  0.91413874  0.36914810    -0.55300
C574        C  0.39998135  0.89072051  0.39348480     0.08700
C575        C  0.36835269  0.86033134  0.31172821    -0.54800
C576        C  0.39470893  0.83506268  0.33389840     0.09300
H577        H  0.28504847  0.86063752  0.36703501     0.13800
H578        H  0.41198551  0.82158182  0.40243108    -0.00500
H579        H  0.37628185  0.94858435  0.37270366     0.14100
H580        H  0.36695762  0.86076545  0.27782788     0.13900
C581        C  0.16422597  0.60087253  0.14992311     0.85700
C582        C  0.13281840  0.62548523  0.17526784    -0.54500
C583        C  0.10441470  0.64722924  0.15135213     0.08600
C584        C  0.11081213  0.64250040  0.10394498     0.19600
C585        C  0.13524067  0.57238097  0.11883141    -0.55300
C586        C  0.10555789  0.59302468  0.09623126     0.08700
C587        C  0.18518487  0.63400509  0.12432882    -0.54800
C588        C  0.15868040  0.65707980  0.10045084     0.09300
H589        H  0.13204287  0.62444134  0.20887008     0.13800
H590        H  0.08821525  0.66001439  0.08433236    -0.00500
H591        H  0.13517477  0.53796525  0.11808349     0.14100
H592        H  0.21898220  0.63828995  0.12468370     0.13900
O593        O  0.02831182  0.99009408  0.41454747    -0.80900
O594        O  0.47337120  0.95788659  0.08518932    -0.81000
O595        O  0.07374983  0.98311278  0.51323443    -0.81000
O596        O  0.41606258  0.92656101  0.46156782    -0.80900
O597        O  0.04115808  0.95426879  0.06343030    -0.81000
O598        O  0.45681079  0.94013743  0.41151300    -0.80900
O599        O  0.41360661  0.95122906  0.04475509    -0.80900
O600        O  0.06901518  0.99531659  0.47419611    -0.81000
C601        C  0.06323862  0.98491343  0.43496803     1.08800
C602        C  0.43632075  0.94282527  0.07705474     1.08600
C603        C  0.07027927  0.95362227  0.03925215     1.08800
C604        C  0.42850825  0.91685262  0.42550755     1.08700
O605        O  0.40663138  0.51410515  0.43741530    -0.80900
O606        O  0.05419320  0.53248929  0.08650939    -0.81000
O607        O  0.04083298  0.57418700  0.46097142    -0.80900
O608        O  0.42260887  0.04024272  0.02781764    -0.80900
O609        O  0.46323519  0.03218805  0.08436830    -0.81000
O610        O  0.47608917  0.56329361  0.43651827    -0.80900
O611        O  0.36499252  0.49381382  0.48640695    -0.80900
O612        O  0.05094935  0.57982927  0.04125630    -0.81000
Co613      Co  0.46881905  0.50037475  0.43202301     1.51500
Co614      Co  0.00270890  0.99897268  0.05446946     1.51700
Co615      Co  0.03660647  0.53111476  0.50079363     1.51600
Co616      Co  0.42357801  0.98406308  0.99458929     1.51500
O617        O  0.48490062  0.98735620  0.49178685    -1.42900
C618        C  0.37055832  0.51341432  0.45346797     1.08700
C619        C  0.06775004  0.56824440  0.07469085     1.08800
C620        C  0.01004256  0.58477757  0.43877502     1.08700
C621        C  0.43189288  0.54929865  0.07051071     1.08700
O622        O  0.31717196  0.77187216  0.42347981    -0.80900
O623        O  0.28488908  0.72317815  0.04685489    -0.81000
O624        O  0.30113090  0.81626440  0.02615102    -0.81000
O625        O  0.23406339  0.65289688  0.45781868    -0.80900
O626        O  0.26074879  0.79167835  0.07352820    -0.81000
O627        O  0.28786529  0.68931524  0.43605894    -0.80900
O628        O  0.25293106  0.66439845  0.02971172    -0.80900
O629        O  0.29418050  0.83319758  0.44162282    -0.81000
C630        C  0.31973030  0.81171282  0.42206067     1.08800
C631        C  0.28455746  0.68430868  0.04844171     1.08600
C632        C  0.29285180  0.81346041  0.06387102     1.08800
C633        C  0.26931260  0.65401470  0.44270760     1.08700
O634        O  0.20676961  0.70818275  0.40057282    -0.80900
O635        O  0.17563291  0.77673673  0.03071615    -0.81000
O636        O  0.20620916  0.83111637  0.44443923    -0.80900
O637        O  0.16986320  0.68629043  0.03332370    -0.80900
O638        O  0.20739026  0.71705835  0.08637608    -0.81000
O639        O  0.23085003  0.79173738  0.39290232    -0.80900
O640        O  0.16639725  0.69029974  0.45040016    -0.80900
O641        O  0.21604068  0.83356283  0.52952526    -0.81000
Co642      Co  0.25968843  0.74183228  0.41882700     1.51500
Co643      Co  0.22961634  0.74576478  0.03706514     1.51700
Co644      Co  0.25370877  0.82322191  0.48519490     1.51600
Co645      Co  0.21409606  0.69964397  0.99190324     1.51500
O646        O  0.24421692  0.75847552  0.47950999    -1.42900
C647        C  0.17420558  0.68911491  0.41237205     1.08700
C648        C  0.18059045  0.81688115  0.03367556     1.08800
C649        C  0.20526985  0.81875703  0.40619126     1.08700
C650        C  0.17793083  0.68973346  0.07285925     1.08700
O651        O  0.03878891  0.82014383  0.27573285    -0.80900
O652        O  0.46494738  0.78322739  0.15750972    -0.81000
O653        O  0.10051088  0.75650014  0.19825912    -0.81000
O654        O  0.41141288  0.78539735  0.27572842    -0.80900
O655        O  0.04787892  0.78549465  0.16347640    -0.81000
O656        O  0.46432370  0.80912290  0.32157922    -0.80900
O657        O  0.46485632  0.81452495  0.21975758    -0.80900
O658        O  0.08915635  0.77456513  0.28011244    -0.81000
C659        C  0.07654406  0.81153936  0.28627878     1.08800
C660        C  0.45669505  0.81462623  0.18076685     1.08600
C661        C  0.08591560  0.78553867  0.17618222     1.08800
C662        C  0.42463739  0.80803359  0.31003969     1.08700
O663        O  0.45910418  0.72870199  0.30812648    -0.80900
O664        O  0.05035025  0.69763819  0.14839258    -0.81000
O665        O  0.05083408  0.69344466  0.28720185    -0.80900
O666        O  0.41612316  0.73507369  0.18997557    -0.80900
O667        O  0.46082109  0.69469321  0.15757285    -0.81000
O668        O  0.53264049  0.74792570  0.32654524    -0.80900
O669        O  0.44081053  0.69884924  0.25048142    -0.80900
O670        O  0.06610737  0.67127669  0.20833808    -0.81000
Co671      Co  0.49576494  0.77346016  0.28220565     1.51500
Co672      Co  0.00636332  0.73960190  0.16205479     1.51700
Co673      Co  0.07260714  0.72453640  0.24265772     1.51600
Co674      Co  0.45549177  0.75731423  0.24005658     1.51500
O675        O  0.51225478  0.73918421  0.22665576    -1.42900
C676        C  0.44020426  0.69825690  0.28826774     1.08700
C677        C  0.07101305  0.67227455  0.16996004     1.08800
C678        C  0.04147422  0.70911626  0.32208039     1.08700
C679        C  0.42330005  0.70487753  0.16311287     1.08700
O680        O  0.32117516  0.95852370  0.31986791    -0.80900
O681        O  0.28178103  0.50968997  0.17190299    -0.81000
O682        O  0.26796919  0.91205203  0.21468339    -0.81000
O683        O  0.27274509  0.58723069  0.28545058    -0.80900
O684        O  0.27261172  0.96974161  0.17698806    -0.81000
O685        O  0.31740100  0.54104347  0.30675830    -0.80900
O686        O  0.29484027  0.56286081  0.21388910    -0.80900
O687        O  0.27849891  0.90367558  0.29798089    -0.81000
C688        C  0.31306795  0.91881354  0.31604391     1.08800
C689        C  0.30345223  0.54337958  0.18098661     1.08600
C690        C  0.28292814  0.93177800  0.18518571     1.08800
C691        C  0.30939463  0.57841733  0.29943541     1.08700
O692        O  0.23262180  0.54311272  0.33403859    -0.80900
O693        O  0.20546185  0.95950597  0.17004069    -0.81000
O694        O  0.19600309  0.94030534  0.30379610    -0.80900
O695        O  0.21298603  0.59033413  0.21110586    -0.80900
O696        O  0.20394312  0.53804802  0.16295522    -0.81000
O697        O  0.24178299  0.96149763  0.35393608    -0.80900
O698        O  0.19255476  0.53909949  0.27498786    -0.80900
O699        O  0.18331803  0.94322232  0.22723177    -0.81000
Co700      Co  0.27685567  0.50035812  0.32429040     1.51500
Co701      Co  0.23222692  0.00668572  0.20728480     1.51700
Co702      Co  0.23326086  0.92801084  0.26068047     1.51600
Co703      Co  0.24222679  0.54567107  0.24262627     1.51500
O704        O  0.26111266  0.98736189  0.26157505    -1.42900
C705        C  0.19879239  0.55144545  0.31315219     1.08700
C706        C  0.18254512  0.93600029  0.18886997     1.08800
C707        C  0.20472615  0.95000523  0.34149505     1.08700
C708        C  0.19562932  0.57575209  0.17560637     1.08700
C709        C  0.34482099  0.60932549  0.30330736    -0.06300
C710        C  0.33948658  0.65151161  0.31632523    -0.33700
C711        C  0.37362463  0.68083392  0.31839110     0.35600
C712        C  0.41281356  0.66780740  0.30613831    -0.06600
C713        C  0.41870457  0.62529388  0.29579648    -0.33600
C714        C  0.38518171  0.59588918  0.29458933     0.35500
H715        H  0.30889805  0.66179984  0.32415535     0.15800
O716        O  0.36774525  0.72267410  0.32911297    -0.61100
H717        H  0.44848328  0.61550076  0.28507079     0.15900
O718        O  0.39133135  0.55478721  0.28103327    -0.61200
H719        H  0.40829230  0.54255385  0.30405448     0.42800
H720        H  0.35124451  0.73342521  0.30490366     0.42800
C721        C  0.11196424  0.82277130  0.16724455    -0.06300
C722        C  0.09201086  0.86154189  0.16508722    -0.33700
C723        C  0.11539699  0.89955307  0.16647992     0.35600
C724        C  0.15916242  0.89909464  0.16938854    -0.06600
C725        C  0.17926647  0.86050286  0.16594162    -0.33600
C726        C  0.15572661  0.82203721  0.16509006     0.35500
H727        H  0.05823298  0.86285003  0.16613738     0.15800
O728        O  0.09543176  0.93703138  0.17010797    -0.61100
H729        H  0.21322797  0.86013989  0.16774624     0.15900
O730        O  0.17554619  0.78432375  0.16354408    -0.61200
H731        H  0.19117738  0.78293993  0.19113231     0.42800
H732        H  0.09357533  0.94760154  0.14146230     0.42800
C733        C  0.30831448  0.90748561  0.15691241    -0.06300
C734        C  0.31872677  0.86643878  0.16778942    -0.33700
C735        C  0.31932904  0.83414136  0.13664799     0.35600
C736        C  0.31302492  0.84408296  0.09478408    -0.06600
C737        C  0.31308954  0.88651239  0.08430677    -0.33600
C738        C  0.31043801  0.91845836  0.11521346     0.35500
H739        H  0.31975944  0.85790779  0.20009869     0.15800
O740        O  0.32219603  0.79280689  0.14722645    -0.61100
H741        H  0.30885748  0.89454114  0.05190072     0.15900
O742        O  0.30377985  0.95878495  0.10348304    -0.61200
H743        H  0.27393147  0.95829252  0.09257267     0.42800
H744        H  0.29394961  0.78406908  0.15562785     0.42800
C745        C  0.15488691  0.65534536  0.38265855    -0.06300
C746        C  0.16225040  0.65953307  0.34047364    -0.33700
C747        C  0.17246333  0.62445109  0.31524953     0.35600
C748        C  0.17238671  0.58386211  0.33142800    -0.06600
C749        C  0.15772875  0.57870554  0.37106345    -0.33600
C750        C  0.14868736  0.61399217  0.39673242     0.35500
H751        H  0.16724731  0.69092932  0.32913454     0.15800
O752        O  0.19029509  0.63127410  0.27836091    -0.61500
H753        H  0.15789894  0.54784811  0.38393821     0.15900
O754        O  0.14143070  0.60784067  0.43766354    -0.61200
H755        H  0.11248231  0.61705920  0.44108913     0.42800
H756        H  0.17373008  0.65284073  0.26416837     0.42800
C757        C  0.10621011  0.83956211  0.31365038    -0.06300
C758        C  0.09838778  0.84302910  0.35621446    -0.33700
C759        C  0.13130562  0.84074606  0.38740367     0.35600
C760        C  0.17280773  0.83499148  0.37614837    -0.06600
C761        C  0.18131213  0.83883504  0.33421411    -0.33600
C762        C  0.14846988  0.84162671  0.30320322     0.35500
H763        H  0.06629767  0.84119727  0.36522078     0.15800
O764        O  0.12168471  0.83898574  0.42824011    -0.61100
H765        H  0.21310908  0.83615964  0.32489826     0.15900
O766        O  0.15752154  0.84003405  0.26204512    -0.61200
H767        H  0.16463357  0.81024560  0.25553496     0.42800
H768        H  0.11621535  0.80843214  0.43224553     0.42800
C769        C  0.31818802  0.66721864  0.07591934    -0.06300
C770        C  0.31306641  0.67054120  0.11923249    -0.33700
C771        C  0.34751079  0.67902752  0.14856831     0.35600
C772        C  0.38817704  0.68467255  0.13494151    -0.06600
C773        C  0.39403696  0.67621051  0.09224710    -0.33600
C774        C  0.35943777  0.66822130  0.06284291     0.35500
H775        H  0.28194571  0.67209664  0.13022210     0.15800
O776        O  0.34061274  0.68513787  0.19015067    -0.61100
H777        H  0.42513746  0.67982304  0.08100734     0.15900
O778        O  0.36596478  0.66595260  0.02097250    -0.61200
H779        H  0.36801531  0.69579176  0.01292923     0.42800
H780        H  0.34613958  0.65759790  0.20238549     0.42800
C781        C  0.33866751  0.54207875  0.43790551    -0.06300
C782        C  0.29930752  0.54088017  0.45454244    -0.33700
C783        C  0.27456040  0.57608879  0.45349929     0.35600
C784        C  0.28967863  0.61357679  0.43611609    -0.06600
C785        C  0.32654074  0.61284295  0.41517359    -0.33600
C786        C  0.35067713  0.57725773  0.41518749     0.35500
H787        H  0.28920347  0.51402494  0.47157071     0.15800
O788        O  0.23789173  0.57472258  0.47340894    -0.61100
H789        H  0.33822364  0.64093194  0.40107814     0.15900
O790        O  0.38834011  0.57964582  0.39718989    -0.61200
H791        H  0.38507680  0.55884370  0.37284850     0.42800
H792        H  0.21627205  0.56211518  0.45208702     0.42800
C793        C  0.14829047  0.84739773  0.04281692    -0.06300
C794        C  0.16303030  0.88774614  0.06042014    -0.33700
C795        C  0.13844113  0.92286948  0.05778930     0.35600
C796        C  0.09758537  0.91781801  0.03946989    -0.06600
C797        C  0.08128442  0.87727191  0.02472432    -0.33600
C798        C  0.10655185  0.84200923  0.02611545     0.35500
H799        H  0.19494423  0.89272961  0.07418863     0.15800
O800        O  0.15444447  0.96188184  0.07357662    -0.61100
H801        H  0.04922284  0.87323592  0.01125302     0.15900
O802        O  0.09112227  0.80350684  0.50843603    -0.61200
H803        H  0.07953035  0.78848181  0.53170968     0.42800
H804        H  0.16884271  0.97428507  0.05035530     0.42800
C805        C  0.09906989  0.96910505  0.41328082    -0.06300
C806        C  0.13980325  0.97320554  0.43346649    -0.33700
C807        C  0.17503261  0.96405680  0.41163637     0.35600
C808        C  0.16969551  0.95091351  0.36900674    -0.06600
C809        C  0.12876262  0.94350807  0.35013606    -0.33600
C810        C  0.09374968  0.95237760  0.37177854     0.35500
H811        H  0.14528394  0.49166595  0.46008723     0.15800
O812        O  0.21380388  0.47250038  0.42797197    -0.61100
H813        H  0.12349521  0.93257489  0.31754728     0.15900
O814        O  0.05455859  0.94501946  0.35173108    -0.61200
H815        H  0.05027802  0.96944300  0.33405973     0.42800
H816        H  0.21952129  0.44655815  0.44305739     0.42800
C817        C  0.39999910  0.56499658  0.09835470    -0.06300
C818        C  0.35769137  0.56277582  0.08297223    -0.33700
C819        C  0.32559742  0.55883480  0.11035661     0.35600
C820        C  0.33569038  0.55794818  0.15368570    -0.06600
C821        C  0.37627830  0.06701267  0.16639063    -0.33600
C822        C  0.40816982  0.06953435  0.13855664     0.35500
H823        H  0.34943273  0.56007276  0.04958759     0.15800
O824        O  0.28433689  0.55532239  0.09476125    -0.61100
H825        H  0.38454715  0.06896483  0.19971715     0.15900
O826        O  0.44904182  0.07497413  0.15469226    -0.61200
H827        H  0.45687261  0.10526655  0.15123572     0.42800
H828        H  0.28194358  0.53045477  0.07443473     0.42800
C829        C  0.43529647  0.84853374  0.15980800    -0.06300
C830        C  0.41828871  0.83893473  0.11844323    -0.33700
C831        C  0.41265089  0.87074851  0.09087911     0.35600
C832        C  0.42117610  0.91289913  0.10573470    -0.06600
C833        C  0.42985441  0.92285329  0.14876291    -0.33600
C834        C  0.43810414  0.89070175  0.17588806     0.35500
H835        H  0.41422272  0.80639407  0.10580621     0.15800
O836        O  0.40701096  0.85970951  0.04875201    -0.61100
H837        H  0.93615699  0.95554437  0.16007865     0.15900
O838        O  0.95342678  0.90104235  0.21622631    -0.61200
H839        H  0.98405803  0.90631872  0.21465220     0.42800
H840        H  0.37969728  0.87077285  0.03905550     0.42800
C841        C  0.01654552  0.61795737  0.41059463    -0.06300
C842        C  0.54331283  0.60892865  0.37923781    -0.33700
C843        C  0.55235189  0.63879264  0.35102293     0.35600
C844        C  0.03603840  0.67961276  0.35519182    -0.06600
C845        C  0.00929764  0.68880866  0.38726781    -0.33600
C846        C  0.99865754  0.65756116  0.41450051     0.35500
H847        H  0.55672935  0.57802239  0.37607607     0.15800
O848        O  0.57680624  0.62737505  0.31910441    -0.61100
H849        H  0.99525999  0.71934855  0.39003946     0.15900
O850        O  0.97141335  0.66598761  0.44478889    -0.61200
H851        H  0.94311792  0.65741192  0.43150357     0.42800
H852        H  0.55827861  0.60897696  0.29900143     0.42800
C853        C  0.34257713  0.88956204  0.83858250     0.85700
C854        C  0.31894214  0.85999350  0.86558760    -0.54500
C855        C  0.34291541  0.83456814  0.88962212     0.08600
C856        C  0.39137181  0.84164234  0.88333085     0.19600
C857        C  0.37461769  0.91419268  0.86916620    -0.55300
C858        C  0.39999754  0.89077035  0.89349499     0.08700
C859        C  0.36834399  0.86038630  0.81174401    -0.54800
C860        C  0.39470257  0.83511378  0.83390773     0.09300
H861        H  0.28505793  0.86069610  0.86707380     0.13800
H862        H  0.41199816  0.82162980  0.90243405    -0.00500
H863        H  0.37629739  0.94863825  0.87272268     0.14100
H864        H  0.36693941  0.86081965  0.77784340     0.13900
C865        C  0.16422045  0.60083122  0.64990845     0.85700
C866        C  0.13281867  0.62545044  0.67525285    -0.54500
C867        C  0.10441656  0.64719371  0.65133528     0.08600
C868        C  0.11080895  0.64245934  0.60392935     0.19600
C869        C  0.13522951  0.57233841  0.61882125    -0.55300
C870        C  0.10554821  0.59298443  0.59622054     0.08700
C871        C  0.18518121  0.63395785  0.62430915    -0.54800
C872        C  0.15867635  0.65703344  0.60043317     0.09300
H873        H  0.13204814  0.62441440  0.70885659     0.13800
H874        H  0.08821320  0.65997472  0.58431674    -0.00500
H875        H  0.13515915  0.53792265  0.61807713     0.14100
H876        H  0.21897918  0.63824040  0.62466154     0.13900
O877        O  0.02826923  0.99008367  0.91454396    -0.80900
O878        O  0.47329568  0.95783575  0.58516381    -0.81000
O879        O  0.07369860  0.98318473  0.01324275    -0.81000
O880        O  0.41611746  0.92658699  0.96158625    -0.80900
O881        O  0.04123552  0.95434304  0.56351512    -0.81000
O882        O  0.45683231  0.94018577  0.91151047    -0.80900
O883        O  0.41352888  0.95120955  0.54473202    -0.80900
O884        O  0.06896457  0.99540424  0.97419934    -0.81000
C885        C  0.06320112  0.98496107  0.93497682     1.08800
C886        C  0.43623848  0.94279198  0.57702971     1.08600
C887        C  0.07033015  0.95361081  0.53930614     1.08800
C888        C  0.42853869  0.91689510  0.92551222     1.08700
O889        O  0.40660200  0.51411065  0.93741982    -0.80900
O890        O  0.05417063  0.53245917  0.58649740    -0.81000
O891        O  0.04088193  0.57417601  0.96097166    -0.80900
O892        O  0.42254080  0.04021899  0.52779164    -0.80900
O893        O  0.46318015  0.03215958  0.58433738    -0.81000
O894        O  0.47605757  0.56329938  0.93650300    -0.80900
O895        O  0.36495733  0.49382075  0.98640597    -0.80900
O896        O  0.05093170  0.57980857  0.54125268    -0.81000
Co897      Co  0.46878625  0.50037828  0.93201960     1.51500
Co898      Co  0.00276199  0.99902551  0.55448464     1.51700
Co899      Co  0.03664063  0.53112081  0.00080838     1.51600
Co900      Co  0.42351250  0.98404105  0.49456597     1.51500
O901        O  0.48496651  0.98736113  0.99180862    -1.42900
C902        C  0.37052807  0.51342424  0.95346962     1.08700
C903        C  0.06773444  0.56821307  0.57468196     1.08800
C904        C  0.01008906  0.58476627  0.93878015     1.08700
C905        C  0.43191455  0.54928876  0.57051344     1.08700
O906        O  0.31720611  0.77192267  0.92351493    -0.80900
O907        O  0.28488177  0.72316005  0.54684187    -0.81000
O908        O  0.30107141  0.81625141  0.52614287    -0.81000
O909        O  0.23407171  0.65294585  0.95781925    -0.80900
O910        O  0.26067700  0.79166464  0.57350517    -0.81000
O911        O  0.28789129  0.68935642  0.93608081    -0.80900
O912        O  0.25292697  0.66437319  0.52972351    -0.80900
O913        O  0.29419942  0.83324403  0.94164044    -0.81000
C914        C  0.31975419  0.81176291  0.92208453     1.08800
C915        C  0.28455043  0.68429163  0.54845016     1.08600
C916        C  0.29277458  0.81345793  0.56385811     1.08800
C917        C  0.26932600  0.65405818  0.94271739     1.08700
O918        O  0.20680747  0.70822976  0.90057864    -0.80900
O919        O  0.17559926  0.77666225  0.53069489    -0.81000
O920        O  0.20623766  0.83116075  0.94448497    -0.80900
O921        O  0.16985192  0.68624744  0.53331065    -0.80900
O922        O  0.20738094  0.71701442  0.58636016    -0.81000
O923        O  0.23088396  0.79178849  0.89294328    -0.80900
O924        O  0.16641002  0.69036657  0.95039188    -0.80900
O925        O  0.21612819  0.83359111  0.02958698    -0.81000
Co926      Co  0.25972248  0.74187899  0.91885244     1.51500
Co927      Co  0.22959587  0.74572215  0.53704487     1.51700
Co928      Co  0.25375349  0.82325853  0.98522611     1.51600
Co929      Co  0.21408865  0.69959863  0.49189769     1.51500
O930        O  0.24424560  0.75851445  0.97953319    -1.42900
C931        C  0.17423404  0.68917027  0.91236709     1.08700
C932        C  0.18052856  0.81680875  0.53366640     1.08800
C933        C  0.20529694  0.81879989  0.90623543     1.08700
C934        C  0.17792228  0.68968892  0.57284471     1.08700
O935        O  0.03881778  0.82010549  0.77574162    -0.80900
O936        O  0.46489893  0.78322851  0.65751089    -0.81000
O937        O  0.10054062  0.75646933  0.69825311    -0.81000
O938        O  0.41138997  0.78542992  0.77574550    -0.80900
O939        O  0.04791358  0.78546902  0.66346924    -0.81000
O940        O  0.46430927  0.80916937  0.82158075    -0.80900
O941        O  0.46481202  0.81454253  0.71975095    -0.80900
O942        O  0.08918392  0.77452307  0.78010696    -0.81000
C943        C  0.07657188  0.81149582  0.78628816     1.08800
C944        C  0.45663791  0.81462934  0.68076089     1.08600
C945        C  0.08594542  0.78551876  0.67619124     1.08800
C946        C  0.42462182  0.80807748  0.81004772     1.08700
O947        O  0.45908793  0.72874625  0.80815563    -0.80900
O948        O  0.05036847  0.69761521  0.64837233    -0.81000
O949        O  0.05084974  0.69340139  0.78717826    -0.80900
O950        O  0.41609303  0.73507423  0.69000416    -0.80900
O951        O  0.46079555  0.69469695  0.65760270    -0.81000
O952        O  0.53262119  0.74796593  0.82655684    -0.80900
O953        O  0.44079356  0.69887660  0.75051969    -0.80900
O954        O  0.06611528  0.67124751  0.70831708    -0.81000
Co955      Co  0.49574243  0.77349578  0.78221299     1.51500
Co956      Co  0.00639162  0.73958551  0.66203612     1.51700
Co957      Co  0.07262843  0.72450039  0.74264277     1.51600
Co958      Co  0.45546407  0.75733853  0.74007304     1.51500
O959        O  0.51222579  0.73920765  0.72666759    -1.42900
C960        C  0.44019351  0.69829213  0.78830698     1.08700
C961        C  0.07102263  0.67224627  0.66994030     1.08800
C962        C  0.04149679  0.70907257  0.82205873     1.08700
C963        C  0.42327275  0.70487359  0.66314737     1.08700
O964        O  0.32115578  0.95858389  0.81991873    -0.80900
O965        O  0.28177344  0.50965757  0.67188702    -0.81000
O966        O  0.26793844  0.91209552  0.71471149    -0.81000
O967        O  0.27277746  0.58721687  0.78542351    -0.80900
O968        O  0.27256426  0.96977381  0.67699952    -0.81000
O969        O  0.31743811  0.54102289  0.80670624    -0.80900
O970        O  0.29483497  0.56283409  0.71386369    -0.80900
O971        O  0.27849544  0.90372820  0.79800926    -0.81000
C972        C  0.31305933  0.91887175  0.81608021     1.08800
C973        C  0.30344479  0.54334783  0.68096401     1.08600
C974        C  0.28287749  0.93180947  0.68519614     1.08800
C975        C  0.30942884  0.57840149  0.79940360     1.08700
O976        O  0.23267507  0.54311996  0.83403674    -0.80900
O977        O  0.20541777  0.95954794  0.67008598    -0.81000
O978        O  0.19599201  0.94034952  0.80384484    -0.80900
O979        O  0.21298161  0.59030434  0.71109237    -0.80900
O980        O  0.20393547  0.53801046  0.66294726    -0.81000
O981        O  0.24176621  0.96157056  0.85397799    -0.80900
O982        O  0.19257627  0.53909939  0.77500726    -0.80900
O983        O  0.18329806  0.94328413  0.72729112    -0.81000
Co984      Co  0.27689327  0.50034920  0.82426840     1.51500
Co985      Co  0.23220440  0.00673119  0.70731324     1.51700
Co986      Co  0.23324520  0.92806015  0.76072090     1.51600
Co987      Co  0.24223229  0.54565171  0.74261891     1.51500
O988        O  0.26109901  0.98740823  0.76160241    -1.42900
C989        C  0.19883758  0.55145804  0.81316660     1.08700
C990        C  0.18251076  0.93604781  0.68893155     1.08800
C991        C  0.20471374  0.95006082  0.84154160     1.08700
C992        C  0.19562291  0.57571561  0.67559499     1.08700
C993        C  0.34484826  0.60932063  0.80330989    -0.06300
C994        C  0.33948993  0.65150212  0.81632974    -0.33700
C995        C  0.37361665  0.68083989  0.81841841     0.35600
C996        C  0.41281997  0.66783378  0.80618802    -0.06600
C997        C  0.41873705  0.62532308  0.79585651    -0.33600
C998        C  0.38522369  0.59590358  0.79462156     0.35500
H999        H  0.30889042  0.66177615  0.82413952     0.15800
O1000       O  0.36771226  0.72267637  0.82913423    -0.61100
H1001       H  0.44852844  0.61554503  0.78514997     0.15900
O1002       O  0.39139926  0.55480821  0.78106290    -0.61200
H1003       H  0.40834864  0.54257672  0.80409229     0.42800
H1004       H  0.35123223  0.73342298  0.80490986     0.42800
C1005       C  0.11198004  0.82277507  0.66729682    -0.06300
C1006       C  0.09200581  0.86153724  0.66518161    -0.33700
C1007       C  0.11537080  0.89956092  0.66659180     0.35600
C1008       C  0.15913675  0.89912648  0.66947435    -0.06600
C1009       C  0.17926146  0.86054749  0.66600383    -0.33600
C1010       C  0.15574251  0.82206777  0.66513457     0.35500
H1011       H  0.05822753  0.86282568  0.66624411     0.15800
O1012       O  0.09538668  0.93702575  0.67024879    -0.61100
H1013       H  0.21322331  0.86020288  0.66779030     0.15900
O1014       O  0.17558156  0.78436627  0.66355610    -0.61200
H1015       H  0.19122731  0.78297408  0.69113578     0.42800
H1016       H  0.09341784  0.94755719  0.64159002     0.42800
C1017       C  0.30823038  0.90750231  0.65690180    -0.06300
C1018       C  0.31864256  0.86645511  0.66777700    -0.33700
C1019       C  0.31923505  0.83415539  0.63663679     0.35600
C1020       C  0.31292381  0.84409326  0.59477255    -0.06600
C1021       C  0.31297489  0.88652072  0.58429141    -0.33600
C1022       C  0.31032716  0.91846868  0.61519729     0.35500
H1023       H  0.31968942  0.85792694  0.70008748     0.15800
O1024       O  0.32210606  0.79282225  0.64721809    -0.61100
H1025       H  0.30873397  0.89454484  0.55188457     0.15900
O1026       O  0.30365202  0.95879100  0.60346382    -0.61200
H1027       H  0.27379536  0.95829265  0.59257801     0.42800
H1028       H  0.29386008  0.78408285  0.65562021     0.42800
C1029       C  0.15492992  0.65538940  0.88265513    -0.06300
C1030       C  0.16230534  0.65956436  0.84047055    -0.33700
C1031       C  0.17252662  0.62447562  0.81525901     0.35600
C1032       C  0.17245012  0.58389128  0.83144808    -0.06600
C1033       C  0.15778989  0.57874719  0.87108476    -0.33600
C1034       C  0.14873440  0.61404009  0.89673972     0.35500
H1035       H  0.16730238  0.69095665  0.82912244     0.15800
O1036       O  0.19035888  0.63128921  0.77836895    -0.61500
H1037       H  0.15795883  0.54789426  0.88396816     0.15900
O1038       O  0.14146329  0.60790056  0.93766981    -0.61200
H1039       H  0.11251152  0.61711460  0.94108099     0.42800
H1040       H  0.17376045  0.65281411  0.76414988     0.42800
C1041       C  0.10623868  0.83951169  0.81366855    -0.06300
C1042       C  0.09840724  0.84299974  0.85623073    -0.33700
C1043       C  0.13132395  0.84076059  0.88743091     0.35600
C1044       C  0.17283162  0.83501915  0.87618683    -0.06600
C1045       C  0.18133946  0.83883467  0.83424972    -0.33600
C1046       C  0.14850036  0.84158023  0.80322827     0.35500
H1047       H  0.06631547  0.84116280  0.86523153     0.15800
O1048       O  0.12170155  0.83904053  0.92827106    -0.61100
H1049       H  0.21313953  0.83616401  0.82494098     0.15900
O1050       O  0.15756124  0.83994876  0.76207256    -0.61200
H1051       H  0.16468437  0.81015717  0.75559315     0.42800
H1052       H  0.11622670  0.80849429  0.93230684     0.42800
C1053       C  0.31816876  0.66721144  0.57595128    -0.06300
C1054       C  0.31303603  0.67056229  0.61926187    -0.33700
C1055       C  0.34747730  0.67904244  0.64860289     0.35600
C1056       C  0.38814990  0.68465825  0.63498271    -0.06600
C1057       C  0.39401681  0.67616471  0.59229431    -0.33600
C1058       C  0.35942173  0.66817793  0.56288529     0.35500
H1059       H  0.28191255  0.67214244  0.63024213     0.15800
O1060       O  0.34057196  0.68517697  0.69018130    -0.61100
H1061       H  0.42512199  0.67975092  0.58106001     0.15900
O1062       O  0.36595927  0.66587127  0.52101766    -0.61200
H1063       H  0.36802534  0.69570153  0.51295158     0.42800
H1064       H  0.34608373  0.65764060  0.70243023     0.42800
C1065       C  0.33864664  0.54210045  0.93790987    -0.06300
C1066       C  0.29928547  0.54091246  0.95454409    -0.33700
C1067       C  0.27454811  0.57612839  0.95349990     0.35600
C1068       C  0.28968041  0.61361473  0.93612339    -0.06600
C1069       C  0.32654425  0.61287244  0.91518513    -0.33600
C1070       C  0.35066878  0.57727911  0.91519669     0.35500
H1071       H  0.28917265  0.51405899  0.97157004     0.15800
O1072       O  0.23787504  0.57477028  0.97340250    -0.61100
H1073       H  0.33823716  0.64096003  0.90109403     0.15900
O1074       O  0.38833322  0.57965767  0.89720119    -0.61200
H1075       H  0.38506758  0.55885587  0.87286350     0.42800
H1076       H  0.21625887  0.56215565  0.95208024     0.42800
C1077       C  0.14821716  0.84728424  0.54289115    -0.06300
C1078       C  0.16294609  0.88757826  0.56063619    -0.33700
C1079       C  0.13839648  0.92273464  0.55802215     0.35600
C1080       C  0.09759235  0.91776783  0.53955444    -0.06600
C1081       C  0.08128677  0.87726269  0.52468134    -0.33600
C1082       C  0.10651172  0.84196704  0.52607692     0.35500
H1083       H  0.19483634  0.89249951  0.57448400     0.15800
O1084       O  0.15439656  0.96170130  0.57394271    -0.61100
H1085       H  0.04925899  0.87328586  0.51110697     0.15900
O1086       O  0.09115796  0.80350488  0.00858712    -0.61200
H1087       H  0.07969224  0.78850332  0.03193794     0.42800
H1088       H  0.16892096  0.97413399  0.55081617     0.42800
C1089       C  0.09904762  0.96915945  0.91330991    -0.06300
C1090       C  0.13978120  0.97333540  0.93348717    -0.33700
C1091       C  0.17501687  0.96418123  0.91166928     0.35600
C1092       C  0.16968605  0.95096148  0.86905781    -0.06600
C1093       C  0.12875639  0.94348123  0.85020170    -0.33600
C1094       C  0.09373659  0.95235145  0.87183445     0.35500
H1095       H  0.14534558  0.49175737  0.96007487     0.15800
O1096       O  0.21385975  0.47258257  0.92795731    -0.61100
H1097       H  0.12349547  0.93248837  0.81762892     0.15900
O1098       O  0.05454729  0.94491213  0.85180437    -0.61200
H1099       H  0.05023309  0.96929012  0.83407970     0.42800
H1100       H  0.21959988  0.44665462  0.94305779     0.42800
C1101       C  0.40000902  0.56497142  0.59835083    -0.06300
C1102       C  0.35770443  0.56273799  0.58295817    -0.33700
C1103       C  0.32560377  0.55878915  0.61033412     0.35600
C1104       C  0.33568728  0.55790981  0.65366540    -0.06600
C1105       C  0.37626084  0.06703164  0.66637249    -0.33600
C1106       C  0.40814279  0.06954891  0.63852768     0.35500
H1107       H  0.34945454  0.56003309  0.54957208     0.15800
O1108       O  0.28434618  0.55526444  0.59472922    -0.61100
H1109       H  0.38453959  0.06899584  0.69969720     0.15900
O1110       O  0.44901836  0.07499609  0.65465003    -0.61200
H1111       H  0.45687001  0.10527894  0.65111650     0.42800
H1112       H  0.28197005  0.53041872  0.57437736     0.42800
C1113       C  0.43521799  0.84852226  0.65979631    -0.06300
C1114       C  0.41820971  0.83891105  0.61843327    -0.33700
C1115       C  0.41255784  0.87071914  0.59086350     0.35600
C1116       C  0.42107791  0.91287347  0.60571067    -0.06600
C1117       C  0.42974629  0.92283651  0.64873828    -0.33600
C1118       C  0.43800388  0.89069244  0.67587026     0.35500
H1119       H  0.41415518  0.80636765  0.60580224     0.15800
O1120       O  0.40690944  0.85967312  0.54873833    -0.61100
H1121       H  0.93625666  0.95555688  0.66010321     0.15900
O1122       O  0.95352555  0.90103839  0.71623570    -0.61200
H1123       H  0.98415813  0.90630203  0.71465805     0.42800
H1124       H  0.37959813  0.87074019  0.53904531     0.42800
C1125       C  0.01658846  0.61793296  0.91058789    -0.06300
C1126       C  0.54327954  0.60895702  0.87924367    -0.33700
C1127       C  0.55231621  0.63882360  0.85103054     0.35600
C1128       C  0.03607054  0.67957355  0.85517186    -0.06600
C1129       C  0.00933592  0.68877655  0.88725026    -0.33600
C1130       C  0.99870266  0.65753700  0.91449096     0.35500
H1131       H  0.55669284  0.57804973  0.87607485     0.15800
O1132       O  0.57675775  0.62740226  0.81910340    -0.61100
H1133       H  0.99529866  0.71931686  0.89001921     0.15900
O1134       O  0.97146903  0.66597229  0.94478698    -0.61200
H1135       H  0.94317013  0.65740172  0.93151027     0.42800
H1136       H  0.55821833  0.60901061  0.79900107     0.42800
C1137       C  0.84229850  0.38996749  0.34157943     0.85700
C1138       C  0.81893403  0.35888764  0.36738694    -0.54500
C1139       C  0.84344151  0.33389096  0.39153094     0.08600
C1140       C  0.89179323  0.34294153  0.38671500     0.19600
C1141       C  0.87269687  0.41510599  0.37365187    -0.55300
C1142       C  0.89830817  0.39208965  0.39830818     0.08700
C1143       C  0.86981329  0.36234099  0.31513693    -0.54800
C1144       C  0.89633457  0.33739362  0.33743255     0.09300
H1145       H  0.78496597  0.35850495  0.36836109     0.13800
H1146       H  0.91263878  0.32318744  0.40587443    -0.00500
H1147       H  0.87323326  0.44949172  0.37767395     0.14100
H1148       H  0.86885616  0.36302640  0.28126595     0.13900
C1149       C  0.66421559  0.10214618  0.15140912     0.85700
C1150       C  0.63133674  0.12494500  0.17626922    -0.54500
C1151       C  0.60314509  0.14681569  0.15225404     0.08600
C1152       C  0.61101961  0.14334931  0.10485897     0.19600
C1153       C  0.63726827  0.07373230  0.11872814    -0.55300
C1154       C  0.60855080  0.09418141  0.09513806     0.08700
C1155       C  0.68503083  0.13664239  0.12735923    -0.54800
C1156       C  0.65842462  0.15915852  0.10300726     0.09300
H1157       H  0.63010945  0.12340993  0.20979267     0.13800
H1158       H  0.58850762  0.16059815  0.08488713    -0.00500
H1159       H  0.63858370  0.03940284  0.11630470     0.14100
H1160       H  0.71875099  0.14164087  0.12834659     0.13900
O1161       O  0.52687979  0.48673710  0.41566833    -0.80900
O1162       O  0.97337087  0.45766649  0.08801333    -0.81000
O1163       O  0.57890383  0.48986906  0.52190832    -0.81000
O1164       O  0.91339751  0.43060510  0.46576403    -0.80900
O1165       O  0.53541500  0.44885473  0.05324630    -0.81000
O1166       O  0.95681107  0.43908374  0.41745227    -0.80900
O1167       O  0.91268423  0.45600861  0.04910302    -0.80900
O1168       O  0.57540960  0.51395328  0.46272840    -0.81000
C1169       C  0.56504740  0.49230339  0.42972026     1.08800
C1170       C  0.93553257  0.44510002  0.08045116     1.08600
C1171       C  0.56964375  0.45431955  0.03690211     1.08800
C1172       C  0.92668094  0.41827184  0.43074304     1.08700
O1173       O  0.90749337  0.01300246  0.43564001    -0.80900
O1174       O  0.54959501  0.04200941  0.08299768    -0.81000
O1175       O  0.54261055  0.06232574  0.45810911    -0.80900
O1176       O  0.92355387  0.54460354  0.03115965    -0.80900
O1177       O  0.96447455  0.53402871  0.08709115    -0.81000
O1178       O  0.97700499  0.06319583  0.44090408    -0.80900
O1179       O  0.86537479  0.98909229  0.48239983    -0.80900
O1180       O  0.57501821  0.07036538  0.02919078    -0.81000
Co1181     Co  0.96950897  0.00077584  0.43016636     1.51500
Co1182     Co  0.50251934  0.49822344  0.05727744     1.51700
Co1183     Co  0.53089653  0.03010554  0.50716617     1.51600
Co1184     Co  0.92289684  0.48868548  0.99839199     1.51500
O1185       O  0.98429250  0.49327574  0.49572967    -1.42900
C1186       C  0.87121415  0.01084870  0.45088649     1.08700
C1187       C  0.57561016  0.06870930  0.06801036     1.08800
C1188       C  0.51287531  0.07977692  0.43990478     1.08700
C1189       C  0.93032867  0.04596767  0.06723774     1.08700
O1190       O  0.81789048  0.27075960  0.42433177    -0.80900
O1191       O  0.78245350  0.22252252  0.05356494    -0.81000
O1192       O  0.80337096  0.31339042  0.02925078    -0.81000
O1193       O  0.73608031  0.15133731  0.45928373    -0.80900
O1194       O  0.76150759  0.29034752  0.07628918    -0.81000
O1195       O  0.78901135  0.18804988  0.43636829    -0.80900
O1196       O  0.75549391  0.16265577  0.03131143    -0.80900
O1197       O  0.79663238  0.33219906  0.44489120    -0.81000
C1198       C  0.82101397  0.31068264  0.42399761     1.08800
C1199       C  0.78440559  0.18364347  0.05311022     1.08600
C1200       C  0.79445618  0.31107850  0.06689793     1.08800
C1201       C  0.77082992  0.15263858  0.44326767     1.08700
O1202       O  0.70728001  0.20747963  0.40282334    -0.80900
O1203       O  0.67496957  0.27760180  0.02892659    -0.81000
O1204       O  0.70893776  0.33114790  0.44772527    -0.80900
O1205       O  0.67235000  0.18397241  0.03521395    -0.80900
O1206       O  0.70419829  0.22030392  0.08856642    -0.81000
O1207       O  0.73153302  0.29103628  0.39566130    -0.80900
O1208       O  0.66839755  0.18826291  0.45328181    -0.80900
O1209       O  0.71915363  0.33065429  0.53264737    -0.81000
Co1210     Co  0.76044897  0.24088646  0.42057371     1.51500
Co1211     Co  0.72834714  0.24577668  0.03928715     1.51700
Co1212     Co  0.75641370  0.32178204  0.48826602     1.51600
Co1213     Co  0.71667267  0.19775073  0.99405194     1.51500
O1214       O  0.74654495  0.25683771  0.48210444    -1.42900
C1215       C  0.67533083  0.18775077  0.41507092     1.08700
C1216       C  0.68196951  0.31742103  0.03073374     1.08800
C1217       C  0.70693090  0.31865458  0.40949145     1.08700
C1218       C  0.67742154  0.19071452  0.07480799     1.08700
O1219       O  0.53995209  0.32045253  0.27970264    -0.80900
O1220       O  0.96538478  0.28490497  0.16038757    -0.81000
O1221       O  0.60070822  0.25733078  0.20088914    -0.81000
O1222       O  0.91261620  0.28797126  0.27898222    -0.80900
O1223       O  0.54831638  0.28659903  0.16596561    -0.81000
O1224       O  0.96559188  0.30998722  0.32549234    -0.80900
O1225       O  0.96594623  0.31669367  0.22242128    -0.80900
O1226       O  0.58983320  0.27434053  0.28332445    -0.81000
C1227       C  0.57752685  0.31136595  0.29015079     1.08800
C1228       C  0.95755586  0.31661095  0.18342579     1.08600
C1229       C  0.58644882  0.28603478  0.17810257     1.08800
C1230       C  0.92602220  0.30996404  0.31361407     1.08700
O1231       O  0.95976123  0.22970143  0.31147379    -0.80900
O1232       O  0.55012835  0.19874197  0.15027924    -0.81000
O1233       O  0.55093112  0.19302205  0.28929667    -0.80900
O1234       O  0.91654819  0.23717830  0.19317639    -0.80900
O1235       O  0.96108427  0.19636972  0.16099518    -0.81000
O1236       O  0.03307245  0.24685486  0.32985936    -0.80900
O1237       O  0.94076782  0.20132536  0.25338514    -0.80900
O1238       O  0.56588448  0.17183182  0.20990046    -0.81000
Co1239     Co  0.99669423  0.27413710  0.28584636     1.51500
Co1240     Co  0.50659636  0.24101956  0.16491096     1.51700
Co1241     Co  0.57277145  0.22485739  0.24503598     1.51600
Co1242     Co  0.95618704  0.25956014  0.24303310     1.51500
O1243       O  0.01263325  0.24042342  0.22961540    -1.42900
C1244       C  0.94043938  0.19991473  0.29110875     1.08700
C1245       C  0.57039605  0.17273732  0.17138541     1.08800
C1246       C  0.54190005  0.20796218  0.32459824     1.08700
C1247       C  0.92366445  0.20672814  0.16654802     1.08700
O1248       O  0.82066563  0.45842812  0.32106032    -0.80900
O1249       O  0.78025583  0.01072477  0.17090556    -0.81000
O1250       O  0.76959757  0.41115970  0.21595285    -0.81000
O1251       O  0.77388631  0.08781676  0.28530659    -0.80900
O1252       O  0.77404020  0.46849451  0.17767538    -0.81000
O1253       O  0.81862287  0.04116389  0.30515033    -0.80900
O1254       O  0.79534514  0.06337427  0.21299010    -0.80900
O1255       O  0.77839697  0.40321506  0.29953562    -0.81000
C1256       C  0.81269679  0.41869616  0.31807669     1.08800
C1257       C  0.80264375  0.04408374  0.17948693     1.08600
C1258       C  0.78467390  0.43072936  0.18650490     1.08800
C1259       C  0.81059514  0.07876518  0.29877357     1.08700
O1260       O  0.73436657  0.04414623  0.33418433    -0.80900
O1261       O  0.70720262  0.45839561  0.16896719    -0.81000
O1262       O  0.69525394  0.43926441  0.30190787    -0.80900
O1263       O  0.71375304  0.09171260  0.21191536    -0.80900
O1264       O  0.70302439  0.03916684  0.16422222    -0.81000
O1265       O  0.74064592  0.45974538  0.35255798    -0.80900
O1266       O  0.69361164  0.04013572  0.27554479    -0.80900
O1267       O  0.68430483  0.44116653  0.22559985    -0.81000
Co1268     Co  0.77803652  0.00106916  0.32395448     1.51500
Co1269     Co  0.73275446  0.50561133  0.20681468     1.51700
Co1270     Co  0.73370615  0.42692608  0.26052100     1.51600
Co1271     Co  0.74294685  0.04657610  0.24264356     1.51500
O1272       O  0.76083890  0.48667690  0.26172490    -1.42900
C1273       C  0.70015011  0.05209593  0.31378578     1.08700
C1274       C  0.68434828  0.43431275  0.18722842     1.08800
C1275       C  0.70373437  0.44845887  0.33958555     1.08700
C1276       C  0.69551226  0.07704311  0.17686295     1.08700
C1277       C  0.84576447  0.10991270  0.30356990    -0.06300
C1278       C  0.83975395  0.15187914  0.31693158    -0.33700
C1279       C  0.87355512  0.18159110  0.31982572     0.35600
C1280       C  0.91319663  0.16909335  0.30845017    -0.06600
C1281       C  0.91974089  0.12678679  0.29780328    -0.33600
C1282       C  0.88641446  0.09707252  0.29526733     0.35500
H1283       H  0.80886538  0.16173975  0.32422893     0.15800
O1284       O  0.86692523  0.22333784  0.33027481    -0.61100
H1285       H  0.94987069  0.11751045  0.28754192     0.15900
O1286       O  0.89306060  0.05641463  0.28066808    -0.61200
H1287       H  0.91008529  0.04372101  0.30338457     0.42800
H1288       H  0.85165722  0.23409402  0.30531713     0.42800
C1289       C  0.61329789  0.32199369  0.16715161    -0.06300
C1290       C  0.59404371  0.36065612  0.16079148    -0.33700
C1291       C  0.61803799  0.39825686  0.16103297     0.35600
C1292       C  0.66167671  0.39733945  0.16705418    -0.06600
C1293       C  0.68133572  0.35844908  0.16702042    -0.33600
C1294       C  0.65720628  0.32048292  0.16726651     0.35500
H1295       H  0.56018047  0.36254537  0.15964748     0.15800
O1296       O  0.59846683  0.43608009  0.16105892    -0.61100
H1297       H  0.71523491  0.35771026  0.17100210     0.15900
O1298       O  0.67652603  0.28254539  0.16901090    -0.61200
H1299       H  0.69266246  0.28347424  0.19651846     0.42800
H1300       H  0.59926871  0.44524282  0.13193666     0.42800
C1301       C  0.81048261  0.40613954  0.15897632    -0.06300
C1302       C  0.82034385  0.36505428  0.17039853    -0.33700
C1303       C  0.82044024  0.33229423  0.13967210     0.35600
C1304       C  0.81449054  0.34180544  0.09766218    -0.06600
C1305       C  0.81468591  0.38408540  0.08666785    -0.33600
C1306       C  0.81269679  0.41650733  0.11718142     0.35500
H1307       H  0.82114099  0.35692078  0.20282563     0.15800
O1308       O  0.82234102  0.29104164  0.15079375    -0.61100
H1309       H  0.81036843  0.39173763  0.05416018     0.15900
O1310       O  0.80687986  0.45686457  0.10505613    -0.61200
H1311       H  0.77722773  0.45675299  0.09358187     0.42800
H1312       H  0.79377482  0.28295445  0.15881664     0.42800
C1313       C  0.65589290  0.15407331  0.38532535    -0.06300
C1314       C  0.66226945  0.15890964  0.34300476    -0.33700
C1315       C  0.67229442  0.12429075  0.31707352     0.35600
C1316       C  0.67335616  0.08357938  0.33283544    -0.06600
C1317       C  0.65965585  0.07763290  0.37273371    -0.33600
C1318       C  0.65061168  0.11244614  0.39902704     0.35500
H1319       H  0.66648246  0.19050415  0.33189793     0.15800
O1320       O  0.68868884  0.13174243  0.27959889    -0.61500
H1321       H  0.66055342  0.04658333  0.38523767     0.15900
O1322       O  0.64422223  0.10566440  0.44003312    -0.61200
H1323       H  0.61484825  0.11329706  0.44380982     0.42800
H1324       H  0.67069543  0.15246337  0.26582669     0.42800
C1325       C  0.60722273  0.33894926  0.31788510    -0.06300
C1326       C  0.59955359  0.34201142  0.36051996    -0.33700
C1327       C  0.63270824  0.34023428  0.39155377     0.35600
C1328       C  0.67421051  0.33518964  0.37999193    -0.06600
C1329       C  0.68239097  0.33933628  0.33799226    -0.33600
C1330       C  0.64932887  0.34177214  0.30717993     0.35500
H1331       H  0.56753261  0.33967596  0.36966481     0.15800
O1332       O  0.62344358  0.33845150  0.43251979    -0.61100
H1333       H  0.71415712  0.33718172  0.32846547     0.15900
O1334       O  0.65811457  0.34108376  0.26595181    -0.61200
H1335       H  0.66506018  0.31141084  0.25878476     0.42800
H1336       H  0.61766132  0.30796121  0.43664348     0.42800
C1337       C  0.81875737  0.16729385  0.08009313    -0.06300
C1338       C  0.81403144  0.16971465  0.12352110    -0.33700
C1339       C  0.84851632  0.17895604  0.15260860     0.35600
C1340       C  0.88872944  0.18627690  0.13856071    -0.06600
C1341       C  0.89438107  0.17888725  0.09570660    -0.33600
C1342       C  0.85975264  0.17018859  0.06657458     0.35500
H1343       H  0.78305109  0.16986886  0.13489892     0.15800
O1344       O  0.84203332  0.18400545  0.19438290    -0.61100
H1345       H  0.92519723  0.18399243  0.08420136     0.15900
O1346       O  0.86577271  0.16965448  0.02461875    -0.61200
H1347       H  0.86627749  0.19981983  0.01746894     0.42800
H1348       H  0.84769031  0.15615199  0.20585158     0.42800
C1349       C  0.83966080  0.04036038  0.43635526    -0.06300
C1350       C  0.80026881  0.03895326  0.45280428    -0.33700
C1351       C  0.77571114  0.07432341  0.45238821     0.35600
C1352       C  0.79107163  0.11222050  0.43588428    -0.06600
C1353       C  0.82807891  0.11185735  0.41519972    -0.33600
C1354       C  0.85205396  0.07617310  0.41460229     0.35500
H1355       H  0.78995000  0.01171949  0.46916953     0.15800
O1356       O  0.73889721  0.07259305  0.47201406    -0.61100
H1357       H  0.84001124  0.14026043  0.40181384     0.15900
O1358       O  0.88988881  0.07898189  0.39694509    -0.61200
H1359       H  0.88679332  0.05865760  0.37217013     0.42800
H1360       H  0.71756065  0.05974124  0.45058382     0.42800
C1361       C  0.65102990  0.35073954  0.03228747    -0.06300
C1362       C  0.66731422  0.39329869  0.03605102    -0.33700
C1363       C  0.64130767  0.42728483  0.03710367     0.35600
C1364       C  0.59792840  0.41929553  0.03501512    -0.06600
C1365       C  0.58110949  0.37714661  0.03091932    -0.33600
C1366       C  0.60746296  0.34284269  0.02939753     0.35500
H1367       H  0.70081783  0.40092024  0.03859783     0.15800
O1368       O  0.65845833  0.46800477  0.04332587    -0.61100
H1369       H  0.54739971  0.37083945  0.02852839     0.15900
O1370       O  0.59035967  0.30226319  0.52404991    -0.61200
H1371       H  0.58672784  0.29322249  0.55272307     0.42800
H1372       H  0.67912559  0.47143180  0.02191675     0.42800
C1373       C  0.59921747  0.47340161  0.40849586    -0.06300
C1374       C  0.63986180  0.47707182  0.42884688    -0.33700
C1375       C  0.67454967  0.46506106  0.40829123     0.35600
C1376       C  0.66881827  0.44960939  0.36652572    -0.06600
C1377       C  0.62781771  0.44183003  0.34769073    -0.33600
C1378       C  0.59303988  0.45328108  0.36852793     0.35500
H1379       H  0.64468933  0.98570319  0.46568862     0.15800
O1380       O  0.71429099  0.97106549  0.43151049    -0.61100
H1381       H  0.62252482  0.42924808  0.31561013     0.15900
O1382       O  0.55364748  0.44620279  0.34888508    -0.61200
H1383       H  0.54928676  0.47076978  0.33145074     0.42800
H1384       H  0.72130813  0.94351113  0.44299889     0.42800
C1385       C  0.89839644  0.06242220  0.09484847    -0.06300
C1386       C  0.85599821  0.06008349  0.07989703    -0.33700
C1387       C  0.82410691  0.05765114  0.10783446     0.35600
C1388       C  0.83457393  0.05796151  0.15126911    -0.06600
C1389       C  0.87718353  0.56673847  0.16946838    -0.33600
C1390       C  0.90937968  0.57038998  0.14215671     0.35500
H1391       H  0.84750889  0.05632634  0.04658738     0.15800
O1392       O  0.78265192  0.05463190  0.09277262    -0.61100
H1393       H  0.88508874  0.56760707  0.20278527     0.15900
O1394       O  0.95014106  0.57508684  0.15873184    -0.61200
H1395       H  0.95824143  0.60553044  0.15634987     0.42800
H1396       H  0.77995876  0.03103288  0.07100291     0.42800
C1397       C  0.93617685  0.35051968  0.16223635    -0.06300
C1398       C  0.91942622  0.34089998  0.12076668    -0.33700
C1399       C  0.91281354  0.37277539  0.09343394     0.35600
C1400       C  0.91978239  0.41502739  0.10862511    -0.06600
C1401       C  0.92841822  0.42474593  0.15170591    -0.33600
C1402       C  0.93804564  0.39262933  0.17850886     0.35500
H1403       H  0.91616959  0.30842291  0.10785716     0.15800
O1404       O  0.90777126  0.36193679  0.05121398    -0.61100
H1405       H  0.43408648  0.45751041  0.16324431     0.15900
O1406       O  0.45383724  0.40313890  0.21870726    -0.61200
H1407       H  0.48434663  0.40895180  0.21671789     0.42800
H1408       H  0.88146887  0.37449213  0.04073985     0.42800
C1409       C  0.52092933  0.11440459  0.41308349    -0.06300
C1410       C  0.04721755  0.10660252  0.38098771    -0.33700
C1411       C  0.05457803  0.13705664  0.35259313     0.35600
C1412       C  0.53761493  0.17756843  0.35752726    -0.06600
C1413       C  0.51162155  0.18564988  0.39044697    -0.33600
C1414       C  0.50221539  0.15369966  0.41751717     0.35500
H1415       H  0.06079643  0.07589553  0.37681248     0.15800
O1416       O  0.07770395  0.12629204  0.31946300    -0.61100
H1417       H  0.49696766  0.21581192  0.39390065     0.15900
O1418       O  0.47512723  0.16114475  0.44817487    -0.61200
H1419       H  0.44669634  0.15335407  0.43468368     0.42800
H1420       H  0.05838088  0.10832029  0.29963119     0.42800
C1421       C  0.84230174  0.38998952  0.84157262     0.85700
C1422       C  0.81894319  0.35890753  0.86738029    -0.54500
C1423       C  0.84345362  0.33390592  0.89151477     0.08600
C1424       C  0.89180364  0.34295527  0.88669247     0.19600
C1425       C  0.87271041  0.41512342  0.87364214    -0.55300
C1426       C  0.89832646  0.39210277  0.89829084     0.08700
C1427       C  0.86980950  0.36236295  0.81512018    -0.54800
C1428       C  0.89633289  0.33741045  0.83740872     0.09300
H1429       H  0.78497552  0.35852484  0.86835988     0.13800
H1430       H  0.91265057  0.32319638  0.90584504    -0.00500
H1431       H  0.87325037  0.44950889  0.87766778     0.14100
H1432       H  0.86884423  0.36304966  0.78124905     0.13900
C1433       C  0.66419417  0.10209090  0.65140731     0.85700
C1434       C  0.63134083  0.12491676  0.67628079    -0.54500
C1435       C  0.60314612  0.14679258  0.65227364     0.08600
C1436       C  0.61099162  0.14330381  0.60487304     0.19600
C1437       C  0.63721341  0.07367535  0.61875144    -0.55300
C1438       C  0.60849214  0.09413121  0.59516822     0.08700
C1439       C  0.68500803  0.13656796  0.62733120    -0.54800
C1440       C  0.65839851  0.15909189  0.60299128     0.09300
H1441       H  0.63013087  0.12339454  0.70980684     0.13800
H1442       H  0.58847738  0.16055791  0.58490881    -0.00500
H1443       H  0.63851721  0.03934468  0.61633758     0.14100
H1444       H  0.71872957  0.14155571  0.62830086     0.13900
O1445       O  0.52684131  0.48673583  0.91565542    -0.80900
O1446       O  0.97333740  0.45765053  0.58799943    -0.81000
O1447       O  0.57887314  0.48985505  0.02189613    -0.81000
O1448       O  0.91343532  0.43060316  0.96575613    -0.80900
O1449       O  0.53544854  0.44886946  0.55326182    -0.81000
O1450       O  0.95684160  0.43908991  0.91743946    -0.80900
O1451       O  0.91264183  0.45601750  0.54910677    -0.80900
O1452       O  0.57537676  0.51393685  0.96271649    -0.81000
C1453       C  0.56500918  0.49229014  0.92970786     1.08800
C1454       C  0.93549412  0.44509787  0.58044735     1.08600
C1455       C  0.56967290  0.45433218  0.53690978     1.08800
C1456       C  0.92670912  0.41827799  0.93072778     1.08700
O1457       O  0.90744300  0.01295059  0.93561179    -0.80900
O1458       O  0.54957740  0.04189912  0.58300411    -0.81000
O1459       O  0.54271504  0.06228867  0.95810310    -0.80900
O1460       O  0.92351862  0.54460766  0.53115892    -0.80900
O1461       O  0.96445085  0.53402299  0.58708139    -0.81000
O1462       O  0.97692215  0.06316448  0.94084814    -0.80900
O1463       O  0.86531816  0.98906673  0.98237694    -0.80900
O1464       O  0.57485448  0.07044944  0.52922611    -0.81000
Co1465     Co  0.96945972  0.00073900  0.93014332     1.51500
Co1466     Co  0.50254790  0.49823241  0.55728389     1.51700
Co1467     Co  0.53101172  0.03006317  0.00716285     1.51600
Co1468     Co  0.92285786  0.48868946  0.49839274     1.51500
O1469       O  0.98433083  0.49327180  0.99573743    -1.42900
C1470       C  0.87116269  0.01080893  0.95085491     1.08700
C1471       C  0.57553224  0.06867815  0.56803891     1.08800
C1472       C  0.51297895  0.07977843  0.93994164     1.08700
C1473       C  0.93036851  0.04598945  0.56725271     1.08700
O1474       O  0.81790266  0.27076946  0.92430751    -0.80900
O1475       O  0.78240570  0.22249146  0.55359274    -0.81000
O1476       O  0.80334062  0.31336407  0.52927385    -0.81000
O1477       O  0.73611273  0.15135489  0.95932302    -0.80900
O1478       O  0.76147274  0.29031405  0.57630844    -0.81000
O1479       O  0.78902627  0.18805653  0.93635849    -0.80900
O1480       O  0.75548315  0.16262466  0.53128161    -0.80900
O1481       O  0.79665034  0.33220996  0.94487365    -0.81000
C1482       C  0.82102869  0.31069298  0.92397810     1.08800
C1483       C  0.78437441  0.18361263  0.55310911     1.08600
C1484       C  0.79441835  0.31105486  0.56692003     1.08800
C1485       C  0.77084775  0.15264899  0.94327893     1.08700
O1486       O  0.70729466  0.20747859  0.90282225    -0.80900
O1487       O  0.67493067  0.27757372  0.52891920    -0.81000
O1488       O  0.70896001  0.33116662  0.94771292    -0.80900
O1489       O  0.67233814  0.18390758  0.53520139    -0.80900
O1490       O  0.70414328  0.22026545  0.58856263    -0.81000
O1491       O  0.73154021  0.29104156  0.89564872    -0.80900
O1492       O  0.66843007  0.18824845  0.95329072    -0.80900
O1493       O  0.71917961  0.33069791  0.03263399    -0.81000
Co1494     Co  0.76046152  0.24089415  0.92056260     1.51500
Co1495     Co  0.72830708  0.24574785  0.53929515     1.51700
Co1496     Co  0.75643704  0.32180337  0.98825009     1.51600
Co1497     Co  0.71665090  0.19772212  0.49403813     1.51500
O1498       O  0.74656430  0.25685990  0.98209216    -1.42900
C1499       C  0.67536180  0.18772956  0.91507940     1.08700
C1500       C  0.68194026  0.31739103  0.53072103     1.08800
C1501       C  0.70694683  0.31866843  0.90948020     1.08700
C1502       C  0.67738972  0.19065750  0.57479615     1.08700
O1503       O  0.53995623  0.32046563  0.77972425    -0.80900
O1504       O  0.96536949  0.28490814  0.66036555    -0.81000
O1505       O  0.60072608  0.25735114  0.70091202    -0.81000
O1506       O  0.91259850  0.28797811  0.77895788    -0.80900
O1507       O  0.54832556  0.28659931  0.66598290    -0.81000
O1508       O  0.96558013  0.30998792  0.82546411    -0.80900
O1509       O  0.96593566  0.31668845  0.72240304    -0.80900
O1510       O  0.58984712  0.27436438  0.78334400    -0.81000
C1511       C  0.57753455  0.31138767  0.79016668     1.08800
C1512       C  0.95754116  0.31661061  0.68340892     1.08600
C1513       C  0.58645620  0.28605292  0.67812913     1.08800
C1514       C  0.92601084  0.30997278  0.81358706     1.08700
O1515       O  0.95972970  0.22970139  0.81144734    -0.80900
O1516       O  0.55014518  0.19873723  0.65030857    -0.81000
O1517       O  0.55096249  0.19303928  0.78932492    -0.80900
O1518       O  0.91652754  0.23717892  0.69314950    -0.80900
O1519       O  0.96106212  0.19637177  0.66096329    -0.81000
O1520       O  0.03304097  0.24683610  0.82983229    -0.80900
O1521       O  0.94073379  0.20132222  0.75336075    -0.80900
O1522       O  0.56592387  0.17184305  0.70993414    -0.81000
Co1523     Co  0.99667392  0.27412971  0.78581986     1.51500
Co1524     Co  0.50661248  0.24101604  0.66493636     1.51700
Co1525     Co  0.57279586  0.22487541  0.74506144     1.51600
Co1526     Co  0.95616484  0.25955565  0.74300969     1.51500
O1527       O  0.01260855  0.24041219  0.72959118    -1.42900
C1528       C  0.94040638  0.19991357  0.79108469     1.08700
C1529       C  0.57041803  0.17273607  0.67141506     1.08800
C1530       C  0.54193653  0.20797804  0.82462855     1.08700
C1531       C  0.92364249  0.20672754  0.66652159     1.08700
O1532       O  0.82064093  0.45845356  0.82109282    -0.80900
O1533       O  0.78029029  0.01069240  0.67089258    -0.81000
O1534       O  0.76958517  0.41118932  0.71595281    -0.81000
O1535       O  0.77389348  0.08776185  0.78530147    -0.80900
O1536       O  0.77403969  0.46852460  0.67767878    -0.81000
O1537       O  0.81864214  0.04111254  0.80513332    -0.80900
O1538       O  0.79533457  0.06335242  0.71297546    -0.80900
O1539       O  0.77839331  0.40323469  0.79952995    -0.81000
C1540       C  0.81268761  0.41871946  0.81808361     1.08800
C1541       C  0.80265737  0.04406397  0.67947807     1.08600
C1542       C  0.78466659  0.43075685  0.68650697     1.08800
C1543       C  0.81060577  0.07871454  0.79876494     1.08700
O1544       O  0.73439732  0.04407550  0.83418500    -0.80900
O1545       O  0.70719680  0.45842608  0.66897184    -0.81000
O1546       O  0.69523240  0.43927593  0.80190122    -0.80900
O1547       O  0.71372909  0.09165397  0.71191592    -0.80900
O1548       O  0.70304174  0.03912502  0.66419675    -0.81000
O1549       O  0.74061066  0.45974048  0.85256358    -0.80900
O1550       O  0.69362373  0.04007122  0.77555840    -0.80900
O1551       O  0.68429567  0.44121037  0.72560653    -0.81000
Co1552     Co  0.77806082  0.00100277  0.82392773     1.51500
Co1553     Co  0.73275248  0.50563959  0.70682136     1.51700
Co1554     Co  0.73369484  0.42695025  0.76052060     1.51600
Co1555     Co  0.74294567  0.04652666  0.74263735     1.51500
O1556       O  0.76082986  0.48669775  0.76173493    -1.42900
C1557       C  0.70017516  0.05202804  0.81380002     1.08700
C1558       C  0.68433237  0.43435498  0.68723523     1.08800
C1559       C  0.70370204  0.44845699  0.83958164     1.08700
C1560       C  0.69550253  0.07699021  0.67685403     1.08700
C1561       C  0.84576722  0.10987342  0.80357085    -0.06300
C1562       C  0.83973730  0.15184053  0.81691787    -0.33700
C1563       C  0.87352443  0.18156877  0.81980022     0.35600
C1564       C  0.91317271  0.16908617  0.80843126    -0.06600
C1565       C  0.91973831  0.12677987  0.79780417    -0.33600
C1566       C  0.88642540  0.09704937  0.79527838     0.35500
H1567       H  0.80884289  0.16169008  0.82420740     0.15800
O1568       O  0.86687298  0.22331509  0.83022862    -0.61100
H1569       H  0.94987408  0.11751413  0.78754981     0.15900
O1570       O  0.89309191  0.05639117  0.78069447    -0.61200
H1571       H  0.91013652  0.04371894  0.80341055     0.42800
H1572       H  0.85162532  0.23405898  0.80525326     0.42800
C1573       C  0.61328615  0.32203146  0.66719333    -0.06300
C1574       C  0.59401592  0.36069558  0.66089080    -0.33700
C1575       C  0.61799957  0.39830114  0.66111764     0.35600
C1576       C  0.66164401  0.39738887  0.66706757    -0.06600
C1577       C  0.68130977  0.35850127  0.66698791    -0.33600
C1578       C  0.65719131  0.32053009  0.66725128     0.35500
H1579       H  0.56015354  0.36257823  0.65979850     0.15800
O1580       O  0.59842179  0.43612169  0.66119520    -0.61100
H1581       H  0.71521185  0.35776720  0.67092300     0.15900
O1582       O  0.67652154  0.28259651  0.66895694    -0.61200
H1583       H  0.69264499  0.28349898  0.69647079     0.42800
H1584       H  0.59914800  0.44528334  0.63206734     0.42800
C1585       C  0.81046914  0.40615749  0.65897974    -0.06300
C1586       C  0.82032354  0.36507270  0.67041062    -0.33700
C1587       C  0.82039623  0.33230074  0.63969341     0.35600
C1588       C  0.81443586  0.34179803  0.59768063    -0.06600
C1589       C  0.81463087  0.38407481  0.58667302    -0.33600
C1590       C  0.81266821  0.41650953  0.61717955     0.35500
H1591       H  0.82113152  0.35695079  0.70284152     0.15800
O1592       O  0.82229040  0.29105229  0.65082899    -0.61100
H1593       H  0.81030395  0.39171678  0.55416320     0.15900
O1594       O  0.80686666  0.45686724  0.60504711    -0.61200
H1595       H  0.77721359  0.45676716  0.59357850     0.42800
H1596       H  0.79372516  0.28297631  0.65886152     0.42800
C1597       C  0.65594985  0.15402572  0.88534775    -0.06300
C1598       C  0.66231683  0.15884999  0.84302411    -0.33700
C1599       C  0.67232758  0.12422458  0.81709469     0.35600
C1600       C  0.67339525  0.08351686  0.83286358    -0.06600
C1601       C  0.65972279  0.07758194  0.87277552    -0.33600
C1602       C  0.65068875  0.11240235  0.89906584     0.35500
H1603       H  0.66652046  0.19044093  0.83190625     0.15800
O1604       O  0.68870236  0.13166621  0.77960889    -0.61500
H1605       H  0.66063128  0.04653599  0.88528840     0.15900
O1606       O  0.64432086  0.10563294  0.94007897    -0.61200
H1607       H  0.61494038  0.11323936  0.94386035     0.42800
H1608       H  0.67071478  0.15240021  0.76584813     0.42800
C1609       C  0.60723078  0.33897925  0.81789076    -0.06300
C1610       C  0.59956940  0.34204460  0.86052740    -0.33700
C1611       C  0.63272865  0.34026442  0.89155532     0.35600
C1612       C  0.67422638  0.33520837  0.87998497    -0.06600
C1613       C  0.68240078  0.33935377  0.83798365    -0.33600
C1614       C  0.64933452  0.34179949  0.80717759     0.35500
H1615       H  0.56755035  0.33971454  0.86967835     0.15800
O1616       O  0.62347228  0.33849129  0.93252471    -0.61100
H1617       H  0.71416444  0.33719381  0.82845123     0.15900
O1618       O  0.65811220  0.34111728  0.76594716    -0.61200
H1619       H  0.66506361  0.31144599  0.75877436     0.42800
H1620       H  0.61768435  0.30800335  0.93665428     0.42800
C1621       C  0.81872607  0.16726124  0.58008982    -0.06300
C1622       C  0.81400527  0.16969783  0.62351894    -0.33700
C1623       C  0.84849328  0.17895123  0.65259992     0.35600
C1624       C  0.88870418  0.18626676  0.63854423    -0.06600
C1625       C  0.89435077  0.17885684  0.59569126    -0.33600
C1626       C  0.85971912  0.17014624  0.56656536     0.35500
H1627       H  0.78302530  0.16985531  0.63490005     0.15800
O1628       O  0.84201535  0.18401680  0.69437423    -0.61100
H1629       H  0.92516542  0.18395451  0.58418038     0.15900
O1630       O  0.86573395  0.16959155  0.52460779    -0.61200
H1631       H  0.86623548  0.19975247  0.51744314     0.42800
H1632       H  0.84768080  0.15616973  0.70585448     0.42800
C1633       C  0.83962346  0.04033355  0.93632039    -0.06300
C1634       C  0.80022729  0.03893608  0.95275906    -0.33700
C1635       C  0.77568822  0.07432060  0.95235789     0.35600
C1636       C  0.79107261  0.11222263  0.93587951    -0.06600
C1637       C  0.82808327  0.11185170  0.91520087    -0.33600
C1638       C  0.85203993  0.07615429  0.91458968     0.35500
H1639       H  0.78989135  0.01169736  0.96910768     0.15800
O1640       O  0.73886794  0.07259674  0.97197369    -0.61100
H1641       H  0.84003324  0.14025701  0.90183130     0.15900
O1642       O  0.88988200  0.07895677  0.89694556    -0.61200
H1643       H  0.88679064  0.05863681  0.87216967     0.42800
H1644       H  0.71756432  0.05961283  0.95058402     0.42800
C1645       C  0.65101367  0.35072186  0.53224356    -0.06300
C1646       C  0.66731476  0.39327586  0.53597580    -0.33700
C1647       C  0.64132364  0.42727310  0.53704670     0.35600
C1648       C  0.59794381  0.41929955  0.53499844    -0.06600
C1649       C  0.58110786  0.37715641  0.53091154    -0.33600
C1650       C  0.60744577  0.34284141  0.52937824     0.35500
H1651       H  0.70082048  0.40088501  0.53849386     0.15800
O1652       O  0.65849176  0.46798775  0.54325451    -0.61100
H1653       H  0.54739647  0.37086196  0.52854326     0.15900
O1654       O  0.59039286  0.30225929  0.02404948    -0.61200
H1655       H  0.58676720  0.29320082  0.05271751     0.42800
H1656       H  0.67916839  0.47139505  0.52185146     0.42800
C1657       C  0.59917388  0.47337808  0.90848347    -0.06300
C1658       C  0.63981333  0.47701584  0.92884666    -0.33700
C1659       C  0.67450303  0.46501365  0.90828953     0.35600
C1660       C  0.66877788  0.44959883  0.86651246    -0.06600
C1661       C  0.62777923  0.44184432  0.84766366    -0.33600
C1662       C  0.59299912  0.45328699  0.86850228     0.35500
H1663       H  0.64472418  0.98548250  0.96569124     0.15800
O1664       O  0.71431389  0.97083869  0.93149156    -0.61100
H1665       H  0.62249079  0.42928692  0.81557441     0.15900
O1666       O  0.55360846  0.44622954  0.84884993    -0.61200
H1667       H  0.54925912  0.47080735  0.83142804     0.42800
H1668       H  0.72127863  0.94325791  0.94295244     0.42800
C1669       C  0.89842450  0.06242917  0.59485888    -0.06300
C1670       C  0.85602837  0.06008324  0.57990101    -0.33700
C1671       C  0.82413240  0.05764781  0.60783330     0.35600
C1672       C  0.83459157  0.05795733  0.65126932    -0.06600
C1673       C  0.87718963  0.56675652  0.66948023    -0.33600
C1674       C  0.90938027  0.57040116  0.64216136     0.35500
H1675       H  0.84754475  0.05632584  0.54659042     0.15800
O1676       O  0.78267987  0.05462447  0.59276449    -0.61100
H1677       H  0.88510276  0.56761614  0.70279461     0.15900
O1678       O  0.95014551  0.57508133  0.65872738    -0.61200
H1679       H  0.95823959  0.60553401  0.65639157     0.42800
H1680       H  0.77998967  0.03101188  0.57100853     0.42800
C1681       C  0.93615433  0.35052028  0.66222948    -0.06300
C1682       C  0.91938337  0.34090179  0.62076682    -0.33700
C1683       C  0.91276189  0.37277801  0.59343643     0.35600
C1684       C  0.91974251  0.41502991  0.60862558    -0.06600
C1685       C  0.92839641  0.42474742  0.65170438    -0.33600
C1686       C  0.93803472  0.39262994  0.67850252     0.35500
H1687       H  0.91611884  0.30842446  0.60785866     0.15800
O1688       O  0.90770190  0.36193863  0.55121710    -0.61100
H1689       H  0.43410344  0.45750731  0.66324301     0.15900
O1690       O  0.45383349  0.40313926  0.71871683    -0.61200
H1691       H  0.48434395  0.40895794  0.71674025     0.42800
H1692       H  0.88141621  0.37452185  0.54074674     0.42800
C1693       C  0.52103066  0.11441647  0.91312956    -0.06300
C1694       C  0.04714001  0.10658193  0.88096066    -0.33700
C1695       C  0.05451812  0.13703551  0.85257049     0.35600
C1696       C  0.53767414  0.17758424  0.85756224    -0.06600
C1697       C  0.51169689  0.18566064  0.89049616    -0.33600
C1698       C  0.50231102  0.15370834  0.91757169     0.35500
H1699       H  0.06072017  0.07587451  0.87679469     0.15800
O1700       O  0.07766367  0.12627149  0.81945480    -0.61100
H1701       H  0.49703765  0.21581921  0.89395614     0.15900
O1702       O  0.47523445  0.16114738  0.94824118    -0.61200
H1703       H  0.44679958  0.15336103  0.93475821     0.42800
H1704       H  0.05835275  0.10830036  0.79961507     0.42800
C1705       C  0.84256612  0.88953982  0.33857540     0.85700
C1706       C  0.81893521  0.85996658  0.36558024    -0.54500
C1707       C  0.84291280  0.83454379  0.38961451     0.08600
C1708       C  0.89136874  0.84162631  0.38332335     0.19600
C1709       C  0.87460362  0.91417372  0.36916022    -0.55300
C1710       C  0.89998797  0.89075540  0.39348815     0.08700
C1711       C  0.86833758  0.86036830  0.31173671    -0.54800
C1712       C  0.89470002  0.83509890  0.33390012     0.09300
H1713       H  0.78505110  0.86066544  0.36706800     0.13800
H1714       H  0.91199849  0.82161653  0.40242609    -0.00500
H1715       H  0.87627877  0.94861928  0.37271763     0.14100
H1716       H  0.86693288  0.86080213  0.27783615     0.13900
C1717       C  0.66421492  0.60083059  0.14992428     0.85700
C1718       C  0.63281013  0.62544782  0.17526799    -0.54500
C1719       C  0.60440900  0.64719249  0.15134957     0.08600
C1720       C  0.61080613  0.64246130  0.10394406     0.19600
C1721       C  0.63522649  0.57233982  0.11883318    -0.55300
C1722       C  0.60554690  0.59298700  0.09623156     0.08700
C1723       C  0.68517714  0.63395994  0.12432933    -0.54800
C1724       C  0.65867414  0.65703602  0.10045220     0.09300
H1725       H  0.63203740  0.62440996  0.20887147     0.13800
H1726       H  0.58821186  0.65997731  0.08433038    -0.00500
H1727       H  0.63515656  0.53792398  0.11808647     0.14100
H1728       H  0.71897508  0.63824312  0.12468417     0.13900
O1729       O  0.52827223  0.99009794  0.41455249    -0.80900
O1730       O  0.97330587  0.95782407  0.08515873    -0.81000
O1731       O  0.57369552  0.98320377  0.51325439    -0.81000
O1732       O  0.91611202  0.92657583  0.46157825    -0.80900
O1733       O  0.54124129  0.95435421  0.06352980    -0.81000
O1734       O  0.95681836  0.94017984  0.41149725    -0.80900
O1735       O  0.91353738  0.95119606  0.04472976    -0.80900
O1736       O  0.56896490  0.99542403  0.47420919    -0.81000
C1737       C  0.56320375  0.98497864  0.43498691     1.08800
C1738       C  0.93624852  0.94277993  0.07702658     1.08600
C1739       C  0.57033704  0.95361993  0.03932168     1.08800
C1740       C  0.92852938  0.91688549  0.42550233     1.08700
O1741       O  0.90659074  0.51408843  0.43741213    -0.80900
O1742       O  0.55416698  0.53246509  0.08650669    -0.81000
O1743       O  0.54089642  0.57416663  0.46097362    -0.80900
O1744       O  0.92254985  0.04020560  0.02779695    -0.80900
O1745       O  0.96319257  0.03214585  0.08433959    -0.81000
O1746       O  0.97603868  0.56328448  0.43647483    -0.80900
O1747       O  0.86495212  0.49381182  0.48640932    -0.80900
O1748       O  0.55094234  0.57980639  0.04125264    -0.81000
Co1749     Co  0.96877863  0.50036261  0.43201293     1.51500
Co1750     Co  0.50276512  0.99903561  0.05449545     1.51700
Co1751     Co  0.53664494  0.53111269  0.50081014     1.51600
Co1752     Co  0.92351711  0.98402942  0.99456541     1.51500
O1753       O  0.98496043  0.98735325  0.49179765    -1.42900
C1754       C  0.87051785  0.51340421  0.45346520     1.08700
C1755       C  0.56773588  0.56821577  0.07468825     1.08800
C1756       C  0.51010227  0.58476784  0.43879089     1.08700
C1757       C  0.93191306  0.54928423  0.07051542     1.08700
O1758       O  0.81720308  0.77189800  0.42350939    -0.80900
O1759       O  0.78488021  0.72314697  0.04686051    -0.81000
O1760       O  0.80108651  0.81622933  0.02614488    -0.81000
O1761       O  0.73406951  0.65292442  0.45783451    -0.80900
O1762       O  0.76069066  0.79165434  0.07351224    -0.81000
O1763       O  0.78788122  0.68933083  0.43607472    -0.80900
O1764       O  0.75293682  0.66435598  0.02973313    -0.80900
O1765       O  0.79421066  0.83322237  0.44164632    -0.81000
C1766       C  0.81975681  0.81173871  0.42208167     1.08800
C1767       C  0.78455684  0.68427802  0.04846135     1.08600
C1768       C  0.79279052  0.81344214  0.06386129     1.08800
C1769       C  0.76931665  0.65403378  0.44271824     1.08700
O1770       O  0.70679578  0.70821954  0.40059278    -0.80900
O1771       O  0.67560574  0.77666653  0.03070521    -0.81000
O1772       O  0.70625001  0.83115361  0.44450698    -0.80900
O1773       O  0.66985794  0.68623743  0.03332685    -0.80900
O1774       O  0.70737931  0.71701570  0.08637567    -0.81000
O1775       O  0.73087940  0.79177587  0.39295977    -0.80900
O1776       O  0.66641305  0.69033798  0.45041112    -0.80900
O1777       O  0.71615963  0.83358248  0.52960897    -0.81000
Co1778     Co  0.75971548  0.74186120  0.41885956     1.51500
Co1779     Co  0.72959739  0.74571489  0.03705750     1.51700
Co1780     Co  0.75377186  0.82323992  0.48523943     1.51600
Co1781     Co  0.71409501  0.69958086  0.99191237     1.51500
O1782       O  0.74425116  0.75849557  0.47954661    -1.42900
C1783       C  0.67422977  0.68915029  0.41238464     1.08700
C1784       C  0.68054384  0.81681283  0.03367373     1.08800
C1785       C  0.70529904  0.81879095  0.40625729     1.08700
C1786       C  0.67792325  0.68968702  0.07286122     1.08700
O1787       O  0.53881688  0.82011038  0.27575696    -0.80900
O1788       O  0.96491191  0.78322681  0.15750985    -0.81000
O1789       O  0.60053148  0.75646711  0.19826396    -0.81000
O1790       O  0.91139420  0.78541622  0.27573826    -0.80900
O1791       O  0.54790561  0.78546484  0.16347580    -0.81000
O1792       O  0.96431024  0.80916169  0.32157404    -0.80900
O1793       O  0.96481860  0.81453565  0.21975148    -0.80900
O1794       O  0.58917785  0.77452235  0.28011878    -0.81000
C1795       C  0.57656877  0.81149533  0.28630653     1.08800
C1796       C  0.95664633  0.81462443  0.18076148     1.08600
C1797       C  0.58593693  0.78551448  0.17619902     1.08800
C1798       C  0.92462283  0.80806584  0.31004031     1.08700
O1799       O  0.95909290  0.72873759  0.30814723    -0.80900
O1800       O  0.55035646  0.69761137  0.14838323    -0.81000
O1801       O  0.55083541  0.69340529  0.28718888    -0.80900
O1802       O  0.91610760  0.73506491  0.18999717    -0.80900
O1803       O  0.96081631  0.69469572  0.15759492    -0.81000
O1804       O  0.03262784  0.74796523  0.32655130    -0.80900
O1805       O  0.94080799  0.69886443  0.25051111    -0.80900
O1806       O  0.56610306  0.67124693  0.20832923    -0.81000
Co1807     Co  0.99574728  0.77349084  0.28220690     1.51500
Co1808     Co  0.50638125  0.73958560  0.16204580     1.51700
Co1809     Co  0.57261788  0.72450093  0.24265374     1.51600
Co1810     Co  0.95547420  0.75732939  0.24006890     1.51500
O1811       O  0.01223827  0.73920487  0.22666372    -1.42900
C1812       C  0.94020249  0.69828107  0.28829796     1.08700
C1813       C  0.57101198  0.67224425  0.16995266     1.08800
C1814       C  0.54148885  0.70907835  0.32207083     1.08700
C1815       C  0.92329210  0.70486720  0.16313924     1.08700
O1816       O  0.82114804  0.95856213  0.31990638    -0.80900
O1817       O  0.78177307  0.50965166  0.17189042    -0.81000
O1818       O  0.76792145  0.91208351  0.21470586    -0.81000
O1819       O  0.77278117  0.58720494  0.28543011    -0.80900
O1820       O  0.77253850  0.96976062  0.17699011    -0.81000
O1821       O  0.81744268  0.54101078  0.30671105    -0.80900
O1822       O  0.79483265  0.56282839  0.21386686    -0.80900
O1823       O  0.77848026  0.90370992  0.29800552    -0.81000
C1824       C  0.81304715  0.91885037  0.31607283     1.08800
C1825       C  0.80344336  0.54334227  0.18096732     1.08600
C1826       C  0.78285494  0.93179735  0.18518727     1.08800
C1827       C  0.80943377  0.57838929  0.29940671     1.08700
O1828       O  0.73268046  0.54310746  0.33404315    -0.80900
O1829       O  0.70539734  0.95954633  0.17008327    -0.81000
O1830       O  0.69598125  0.94034142  0.30384660    -0.80900
O1831       O  0.71297839  0.59029794  0.21110557    -0.80900
O1832       O  0.70393273  0.53800846  0.16295598    -0.81000
O1833       O  0.74176238  0.96156418  0.35397373    -0.80900
O1834       O  0.69257849  0.53908614  0.27501619    -0.80900
O1835       O  0.68328504  0.94327701  0.22729008    -0.81000
Co1836     Co  0.77689606  0.50033619  0.32427096     1.51500
Co1837     Co  0.73218951  0.00672454  0.20731135     1.51700
Co1838     Co  0.73323104  0.92804830  0.26071831     1.51600
Co1839     Co  0.74223227  0.54564254  0.24262515     1.51500
O1840       O  0.76108924  0.98739494  0.26159627    -1.42900
C1841       C  0.69884134  0.55144386  0.31317554     1.08700
C1842       C  0.68249557  0.93604251  0.18893000     1.08800
C1843       C  0.70470769  0.95005752  0.34154224     1.08700
C1844       C  0.69561820  0.57571209  0.17560803     1.08700
C1845       C  0.84485395  0.60930862  0.30330783    -0.06300
C1846       C  0.83949605  0.65149174  0.31632228    -0.33700
C1847       C  0.87362257  0.68082969  0.31840676     0.35600
C1848       C  0.91282576  0.66782269  0.30617664    -0.06600
C1849       C  0.91874207  0.62531108  0.29584790    -0.33600
C1850       C  0.88522904  0.59589101  0.29461868     0.35500
H1851       H  0.80889685  0.66176681  0.32413192     0.15800
O1852       O  0.86771810  0.72266681  0.32911942    -0.61100
H1853       H  0.94853306  0.61553193  0.28514133     0.15900
O1854       O  0.89140418  0.55479410  0.28106462    -0.61200
H1855       H  0.90836584  0.54256929  0.30408948     0.42800
H1856       H  0.85123468  0.73341057  0.30489552     0.42800
C1857       C  0.61197173  0.82276860  0.16730112    -0.06300
C1858       C  0.59199636  0.86152944  0.16517363    -0.33700
C1859       C  0.61536033  0.89955314  0.16658049     0.35600
C1860       C  0.65912618  0.89911943  0.16947236    -0.06600
C1861       C  0.67925273  0.86054087  0.16601202    -0.33600
C1862       C  0.65573486  0.82206131  0.16514693     0.35500
H1863       H  0.55821743  0.86281771  0.16622955     0.15800
O1864       O  0.59537429  0.93701775  0.17022737    -0.61100
H1865       H  0.71321456  0.86019692  0.16780414     0.15900
O1866       O  0.67557520  0.78436022  0.16357968    -0.61200
H1867       H  0.69121914  0.78297519  0.19116134     0.42800
H1868       H  0.59344716  0.94756555  0.14157465     0.42800
C1869       C  0.80820988  0.90749305  0.15689271    -0.06300
C1870       C  0.81863809  0.86645205  0.16777339    -0.33700
C1871       C  0.81924924  0.83415156  0.13663661     0.35600
C1872       C  0.81293797  0.84408352  0.09477070    -0.06600
C1873       C  0.81297349  0.88650931  0.08428526    -0.33600
C1874       C  0.81030502  0.91845712  0.11518708     0.35500
H1875       H  0.81968606  0.85792692  0.20008481     0.15800
O1876       O  0.82213767  0.79282135  0.14722217    -0.61100
H1877       H  0.80873192  0.89452886  0.05187707     0.15900
O1878       O  0.80360932  0.95877375  0.10344772    -0.61200
H1879       H  0.77375127  0.95826062  0.09256410     0.42800
H1880       H  0.79389414  0.78406985  0.15562181     0.42800
C1881       C  0.65492958  0.65536870  0.38267086    -0.06300
C1882       C  0.66230719  0.65954680  0.34048707    -0.33700
C1883       C  0.67253144  0.62446068  0.31527428     0.35600
C1884       C  0.67245371  0.58387488  0.33145953    -0.06600
C1885       C  0.65779240  0.57872694  0.37109519    -0.33600
C1886       C  0.64873584  0.61401774  0.39675264     0.35500
H1887       H  0.66730329  0.69093993  0.32914059     0.15800
O1888       O  0.69036795  0.63127867  0.27838742    -0.61500
H1889       H  0.65796146  0.54787265  0.38397612     0.15900
O1890       O  0.64146434  0.60787432  0.43768190    -0.61200
H1891       H  0.61251595  0.61709864  0.44109698     0.42800
H1892       H  0.67376320  0.65279585  0.26416395     0.42800
C1893       C  0.60623587  0.83950339  0.31369544    -0.06300
C1894       C  0.59840429  0.84298268  0.35625855    -0.33700
C1895       C  0.63132206  0.84074491  0.38745872     0.35600
C1896       C  0.67283057  0.83501184  0.37621326    -0.06600
C1897       C  0.68133694  0.83883222  0.33427626    -0.33600
C1898       C  0.64849732  0.84157637  0.30325528     0.35500
H1899       H  0.56631262  0.84114074  0.36525911     0.15800
O1900       O  0.62170151  0.83902187  0.42829971    -0.61100
H1901       H  0.71313715  0.83616591  0.32496673     0.15900
O1902       O  0.65755825  0.83994979  0.26209944    -0.61200
H1903       H  0.66468071  0.81015844  0.25561648     0.42800
H1904       H  0.61622460  0.80847577  0.43233511     0.42800
C1905       C  0.81818787  0.66719864  0.07594758    -0.06300
C1906       C  0.81306243  0.67052066  0.11926025    -0.33700
C1907       C  0.84750596  0.67900424  0.14859820     0.35600
C1908       C  0.88817295  0.68464962  0.13497264    -0.06600
C1909       C  0.89403560  0.67618390  0.09227971    -0.33600
C1910       C  0.85943828  0.66819619  0.06287401     0.35500
H1911       H  0.78194024  0.67207446  0.13024744     0.15800
O1912       O  0.84060679  0.68511249  0.19018063    -0.61100
H1913       H  0.92513688  0.67979492  0.08104142     0.15900
O1914       O  0.86596839  0.66592334  0.02100445    -0.61200
H1915       H  0.86802151  0.69576129  0.01295906     0.42800
H1916       H  0.84613601  0.65757265  0.20241482     0.42800
C1917       C  0.83863106  0.54207219  0.43789918    -0.06300
C1918       C  0.79927182  0.54088501  0.45453755    -0.33700
C1919       C  0.77453420  0.57610111  0.45349451     0.35600
C1920       C  0.78966500  0.61358712  0.43611578    -0.06600
C1921       C  0.82652372  0.61284136  0.41516915    -0.33600
C1922       C  0.85064767  0.57724718  0.41517866     0.35500
H1923       H  0.78916201  0.51403323  0.47156747     0.15800
O1924       O  0.73786378  0.57474408  0.47340160    -0.61100
H1925       H  0.83821465  0.64092776  0.40107492     0.15900
O1926       O  0.88830809  0.57962269  0.39717551    -0.61200
H1927       H  0.88504209  0.55880899  0.37284729     0.42800
H1928       H  0.71624766  0.56211694  0.45208571     0.42800
C1929       C  0.64823880  0.84730001  0.04289180    -0.06300
C1930       C  0.66297563  0.88760291  0.06060968    -0.33700
C1931       C  0.63841943  0.92275536  0.05800233     0.35600
C1932       C  0.59760109  0.91777697  0.03957206    -0.06600
C1933       C  0.58129103  0.87726502  0.02472546    -0.33600
C1934       C  0.60652259  0.84197339  0.02611037     0.35500
H1935       H  0.69487374  0.89253322  0.07443418     0.15800
O1936       O  0.65442679  0.96172920  0.07389511    -0.61100
H1937       H  0.54925447  0.87327995  0.01117663     0.15900
O1938       O  0.59115940  0.80350278  0.50867262    -0.61200
H1939       H  0.57973483  0.78851512  0.53205244     0.42800
H1940       H  0.66891724  0.97415794  0.05074502     0.42800
C1941       C  0.59905033  0.96917528  0.41332072    -0.06300
C1942       C  0.63978630  0.97336593  0.43349064    -0.33700
C1943       C  0.67501964  0.96420559  0.41167081     0.35600
C1944       C  0.66968397  0.95096529  0.36906423    -0.06600
C1945       C  0.62875245  0.94347236  0.35021690    -0.33600
C1946       C  0.59373510  0.95234778  0.37185197     0.35500
H1947       H  0.64533867  0.49169817  0.46008622     0.15800
O1948       O  0.71385256  0.47252739  0.42796348    -0.61100
H1949       H  0.62348789  0.93246524  0.31764842     0.15900
O1950       O  0.55454356  0.94489328  0.35183083    -0.61200
H1951       H  0.55022169  0.96926077  0.33409423     0.42800
H1952       H  0.71958126  0.44658864  0.44305086     0.42800
C1953       C  0.90000688  0.56496503  0.09835310    -0.06300
C1954       C  0.85770224  0.56273012  0.08296069    -0.33700
C1955       C  0.82560183  0.55878117  0.11033692     0.35600
C1956       C  0.83568562  0.55790416  0.15366839    -0.06600
C1957       C  0.87625725  0.06698072  0.16637855    -0.33600
C1958       C  0.90814481  0.06949657  0.13854048     0.35500
H1959       H  0.84945221  0.56002406  0.04957463     0.15800
O1960       O  0.78434407  0.55525470  0.09473239    -0.61100
H1961       H  0.88453080  0.06892928  0.19970418     0.15900
O1962       O  0.94901923  0.07492151  0.15466887    -0.61200
H1963       H  0.95676959  0.10528663  0.15146038     0.42800
H1964       H  0.78196959  0.53041249  0.07437615     0.42800
C1965       C  0.93522371  0.84851566  0.15979806    -0.06300
C1966       C  0.91821527  0.83890287  0.11843539    -0.33700
C1967       C  0.91256568  0.87070951  0.09086399     0.35600
C1968       C  0.92108831  0.91286382  0.10570929    -0.06600
C1969       C  0.92975659  0.92282920  0.14873648    -0.33600
C1970       C  0.93801132  0.89068626  0.17587037     0.35500
H1971       H  0.91415956  0.80635897  0.10580589     0.15800
O1972       O  0.90691720  0.85966164  0.04873921    -0.61100
H1973       H  0.43626305  0.95556528  0.16011206     0.15900
O1974       O  0.45353260  0.90104547  0.21624237    -0.61200
H1975       H  0.48416534  0.90630468  0.21466184     0.42800
H1976       H  0.87960503  0.87072708  0.03904629     0.42800
C1977       C  0.51660210  0.61793901  0.41060412    -0.06300
C1978       C  0.04326403  0.60895303  0.37923438    -0.33700
C1979       C  0.05231062  0.63882063  0.35102534     0.35600
C1980       C  0.53607238  0.67958137  0.35518681    -0.06600
C1981       C  0.50934332  0.68878326  0.38727019    -0.33600
C1982       C  0.49871657  0.65754291  0.41451243     0.35500
H1983       H  0.05667933  0.57804635  0.37607039     0.15800
O1984       O  0.07676211  0.62739998  0.31910587    -0.61100
H1985       H  0.49530476  0.71932277  0.39004145     0.15900
O1986       O  0.47148913  0.66597700  0.44481463    -0.61200
H1987       H  0.44318890  0.65741502  0.43154143     0.42800
H1988       H  0.05823113  0.60901256  0.29900091     0.42800
C1989       C  0.84256998  0.88948192  0.83854996     0.85700
C1990       C  0.81893058  0.85990897  0.86554867    -0.54500
C1991       C  0.84290201  0.83449076  0.88959341     0.08600
C1992       C  0.89136265  0.84157505  0.88331479     0.19600
C1993       C  0.87459596  0.91411960  0.86914325    -0.55300
C1994       C  0.89997485  0.89070550  0.89348022     0.08700
C1995       C  0.86835181  0.86031344  0.81172148    -0.54800
C1996       C  0.89471116  0.83504780  0.83389166     0.09300
H1997       H  0.78504514  0.86060588  0.86702581     0.13800
H1998       H  0.91198849  0.82156785  0.90242460    -0.00500
H1999       H  0.87626668  0.94856521  0.87269969     0.14100
H2000       H  0.86695707  0.86074796  0.77782120     0.13900
C2001       C  0.66421457  0.60086862  0.64993502     0.85700
C2002       C  0.63280218  0.62547830  0.67527783    -0.54500
C2003       C  0.60439951  0.64722297  0.65136021     0.08600
C2004       C  0.61080287  0.64249708  0.60395417     0.19600
C2005       C  0.63523345  0.57237806  0.61883887    -0.55300
C2006       C  0.60555186  0.59302170  0.59623738     0.08700
C2007       C  0.68517442  0.63400480  0.62434551    -0.54800
C2008       C  0.65867129  0.65707931  0.60046610     0.09300
H2009       H  0.63202341  0.62443266  0.70887965     0.13800
H2010       H  0.58820730  0.66001083  0.58433979    -0.00500
H2011       H  0.63516881  0.53796231  0.61808887     0.14100
H2012       H  0.71897174  0.63829204  0.62470396     0.13900
O2013       O  0.52832200  0.99010209  0.91455937    -0.80900
O2014       O  0.97336937  0.95787630  0.58517917    -0.81000
O2015       O  0.57375694  0.98311987  0.01324766    -0.81000
O2016       O  0.91606129  0.92655036  0.96156344    -0.80900
O2017       O  0.54114595  0.95427266  0.56342828    -0.81000
O2018       O  0.95680128  0.94013056  0.91150350    -0.80900
O2019       O  0.91360378  0.95121856  0.54474671    -0.80900
O2020       O  0.56902407  0.99532088  0.97420821    -0.81000
C2021       C  0.56324799  0.98491888  0.93497996     1.08800
C2022       C  0.93631874  0.94281530  0.57704582     1.08600
C2023       C  0.57027336  0.95363464  0.53925677     1.08800
C2024       C  0.92850222  0.91684321  0.92550075     1.08700
O2025       O  0.90662639  0.51408930  0.93741132    -0.80900
O2026       O  0.55418823  0.53248627  0.58651233    -0.81000
O2027       O  0.54086254  0.57417074  0.96097049    -0.80900
O2028       O  0.92260427  0.04023118  0.52781022    -0.80900
O2029       O  0.96323373  0.03217720  0.58435879    -0.81000
O2030       O  0.97607946  0.56328574  0.93650477    -0.80900
O2031       O  0.86499290  0.49380386  0.98641037    -0.80900
O2032       O  0.55095095  0.57982347  0.54125588    -0.81000
Co2033     Co  0.96881769  0.50036630  0.93202105     1.51500
Co2034     Co  0.50270053  0.99898232  0.55447414     1.51700
Co2035     Co  0.53661833  0.53110635  0.00080025     1.51600
Co2036     Co  0.92357273  0.98405234  0.49458075     1.51500
O2037       O  0.98490461  0.98734327  0.99178217    -1.42900
C2038       C  0.87055383  0.51339693  0.95346595     1.08700
C2039       C  0.56774677  0.56824059  0.57469344     1.08800
C2040       C  0.51006880  0.58477887  0.93878969     1.08700
C2041       C  0.93189043  0.54928876  0.57051293     1.08700
O2042       O  0.81717083  0.77184693  0.92347335    -0.80900
O2043       O  0.78487861  0.72315942  0.54688097    -0.81000
O2044       O  0.80115219  0.81623136  0.52615754    -0.81000
O2045       O  0.73406296  0.65287529  0.95783376    -0.80900
O2046       O  0.76076627  0.79166247  0.57354098    -0.81000
O2047       O  0.78785933  0.68928938  0.93605735    -0.80900
O2048       O  0.75293323  0.66437633  0.52972327    -0.80900
O2049       O  0.79418886  0.83317490  0.94162288    -0.81000
C2050       C  0.81973316  0.81168805  0.92205553     1.08800
C2051       C  0.78455386  0.68428934  0.54845950     1.08600
C2052       C  0.79287354  0.81343604  0.56387900     1.08800
C2053       C  0.76930644  0.65399006  0.94271104     1.08700
O2054       O  0.70676190  0.70816565  0.90058538    -0.80900
O2055       O  0.67563739  0.77675009  0.53072698    -0.81000
O2056       O  0.70621755  0.83110235  0.94444944    -0.80900
O2057       O  0.66986441  0.68628030  0.53333822    -0.80900
O2058       O  0.70737805  0.71706121  0.58639292    -0.81000
O2059       O  0.73084759  0.79171769  0.89291076    -0.80900
O2060       O  0.66640133  0.69027345  0.95041884    -0.80900
O2061       O  0.71606094  0.83355553  0.02953510    -0.81000
Co2062     Co  0.75968450  0.74181096  0.91883209     1.51500
Co2063     Co  0.72961231  0.74575832  0.53708129     1.51700
Co2064     Co  0.75372139  0.82320407  0.98520020     1.51600
Co2065     Co  0.71410041  0.69962518  0.49191909     1.51500
O2066       O  0.74422242  0.75845720  0.97951921    -1.42900
C2067       C  0.67420315  0.68909245  0.91238913     1.08700
C2068       C  0.68061062  0.81689390  0.53368247     1.08800
C2069       C  0.70527178  0.81874036  0.90620183     1.08700
C2070       C  0.67792395  0.68973128  0.57287444     1.08700
O2071       O  0.53878822  0.82014466  0.77574012    -0.80900
O2072       O  0.96495427  0.78322256  0.65750210    -0.81000
O2073       O  0.60049629  0.75649352  0.69825932    -0.81000
O2074       O  0.91141837  0.78538470  0.77572010    -0.80900
O2075       O  0.54786488  0.78548782  0.66347498    -0.81000
O2076       O  0.96432819  0.80911250  0.82157055    -0.80900
O2077       O  0.96486004  0.81451787  0.71975043    -0.80900
O2078       O  0.58914951  0.77455910  0.78011399    -0.81000
C2079       C  0.57654169  0.81153424  0.78628597     1.08800
C2080       C  0.95669941  0.81461983  0.68075962     1.08600
C2081       C  0.58590092  0.78553219  0.67618254     1.08800
C2082       C  0.92464162  0.80802108  0.81003183     1.08700
O2083       O  0.95911021  0.72869100  0.80811508    -0.80900
O2084       O  0.55033176  0.69763079  0.64839563    -0.81000
O2085       O  0.55081788  0.69344339  0.78720437    -0.80900
O2086       O  0.91613347  0.73506329  0.68996647    -0.80900
O2087       O  0.96083512  0.69468943  0.65756054    -0.81000
O2088       O  0.03264940  0.74792025  0.82653309    -0.80900
O2089       O  0.94082151  0.69883787  0.75046966    -0.80900
O2090       O  0.56608629  0.67127157  0.70834196    -0.81000
Co2091     Co  0.99577015  0.77345205  0.78219499     1.51500
Co2092     Co  0.50634691  0.73959897  0.66205769     1.51700
Co2093     Co  0.57259259  0.72453217  0.74265947     1.51600
Co2094     Co  0.95549977  0.75730529  0.74004785     1.51500
O2095       O  0.01226351  0.73917888  0.72664539    -1.42900
C2096       C  0.94021183  0.69824518  0.78825558     1.08700
C2097       C  0.57099448  0.67226791  0.66996461     1.08800
C2098       C  0.54146708  0.70911681  0.82208526     1.08700
C2099       C  0.92331316  0.70486867  0.66310330     1.08700
O2100       O  0.82117097  0.95849991  0.81985426    -0.80900
O2101       O  0.78177575  0.50968305  0.67190402    -0.81000
O2102       O  0.76795420  0.91203694  0.71467396    -0.81000
O2103       O  0.77274482  0.58722012  0.78545435    -0.80900
O2104       O  0.77259002  0.96972776  0.67697846    -0.81000
O2105       O  0.81740226  0.54103337  0.80676006    -0.80900
O2106       O  0.79483390  0.56285399  0.71389015    -0.80900
O2107       O  0.77848963  0.90365412  0.79797360    -0.81000
C2108       C  0.81306065  0.91879016  0.81603461     1.08800
C2109       C  0.80344670  0.54337240  0.68098812     1.08600
C2110       C  0.78290860  0.93176447  0.68517472     1.08800
C2111       C  0.80939584  0.57840694  0.79943562     1.08700
O2112       O  0.73262429  0.54309976  0.83404313    -0.80900
O2113       O  0.70544364  0.95949996  0.67003747    -0.81000
O2114       O  0.69599645  0.94029000  0.80379586    -0.80900
O2115       O  0.71297795  0.59032640  0.71111560    -0.80900
O2116       O  0.70393445  0.53804302  0.66296209    -0.81000
O2117       O  0.74178289  0.96148223  0.85393043    -0.80900
O2118       O  0.69255339  0.53908635  0.77499523    -0.80900
O2119       O  0.68330636  0.94320920  0.72722971    -0.81000
Co2120     Co  0.77685718  0.50034636  0.82429097     1.51500
Co2121     Co  0.73221400  0.00667538  0.70728247     1.51700
Co2122     Co  0.73325032  0.92799442  0.76067535     1.51600
Co2123     Co  0.74222297  0.54566168  0.74263053     1.51500
O2124       O  0.76110504  0.98734493  0.76156813    -1.42900
C2125       C  0.69879272  0.55143045  0.81315982     1.08700
C2126       C  0.68253000  0.93599151  0.68886690     1.08800
C2127       C  0.70472410  0.94999264  0.84149395     1.08700
C2128       C  0.69561903  0.57574607  0.67561648     1.08700
C2129       C  0.84482341  0.60931494  0.80330208    -0.06300
C2130       C  0.83949057  0.65150275  0.81631512    -0.33700
C2131       C  0.87362929  0.68082434  0.81837721     0.35600
C2132       C  0.91281761  0.66779612  0.80612404    -0.06600
C2133       C  0.91870677  0.62528162  0.79578460    -0.33600
C2134       C  0.88518368  0.59587707  0.79458361     0.35500
H2135       H  0.80890273  0.66179269  0.82414555     0.15800
O2136       O  0.86775130  0.72266513  0.82909738    -0.61100
H2137       H  0.94848478  0.61548669  0.78505871     0.15900
O2138       O  0.89133244  0.55477303  0.78103356    -0.61200
H2139       H  0.90830639  0.54254733  0.80404997     0.42800
H2140       H  0.85124735  0.73341469  0.80488924     0.42800
C2141       C  0.61194807  0.82276580  0.66724647    -0.06300
C2142       C  0.59199410  0.86153652  0.66509493    -0.33700
C2143       C  0.61537973  0.89954748  0.66648283     0.35600
C2144       C  0.65914516  0.89908862  0.66938294    -0.06600
C2145       C  0.67924850  0.86049691  0.66593030    -0.33600
C2146       C  0.65570921  0.82203151  0.66508367     0.35500
H2147       H  0.55821687  0.86284457  0.66615214     0.15800
O2148       O  0.59541493  0.93702576  0.67011567    -0.61100
H2149       H  0.71320991  0.86013373  0.66772866     0.15900
O2150       O  0.67552853  0.78431816  0.66353353    -0.61200
H2151       H  0.69115236  0.78292774  0.69112486     0.42800
H2152       H  0.59359201  0.94761856  0.64147918     0.42800
C2153       C  0.80829663  0.90747593  0.65690063    -0.06300
C2154       C  0.81873101  0.86643775  0.66778577    -0.33700
C2155       C  0.81935169  0.83413714  0.63665019     0.35600
C2156       C  0.81304274  0.84406866  0.59478393    -0.06600
C2157       C  0.81308428  0.88649514  0.58429851    -0.33600
C2158       C  0.81041067  0.91844279  0.61519876     0.35500
H2159       H  0.81976964  0.85791298  0.70009709     0.15800
O2160       O  0.82224176  0.79280721  0.64723628    -0.61100
H2161       H  0.80884641  0.89451594  0.55189046     0.15900
O2162       O  0.80372158  0.95876063  0.60345904    -0.61200
H2163       H  0.77386961  0.95824714  0.59255757     0.42800
H2164       H  0.79399859  0.78405427  0.65563570     0.42800
C2165       C  0.65488518  0.65532166  0.88267645    -0.06300
C2166       C  0.66224382  0.65951207  0.84049079    -0.33700
C2167       C  0.67245696  0.62443254  0.81526375     0.35600
C2168       C  0.67238553  0.58384280  0.83143996    -0.06600
C2169       C  0.65773315  0.57868265  0.87107719    -0.33600
C2170       C  0.64869195  0.61396704  0.89674929     0.35500
H2171       H  0.66723621  0.69090922  0.82915226     0.15800
O2172       O  0.69028417  0.63125927  0.77837364    -0.61500
H2173       H  0.65790834  0.54782456  0.88395070     0.15900
O2174       O  0.64144192  0.60781249  0.93768136    -0.61200
H2175       H  0.61249558  0.61703407  0.94111323     0.42800
H2176       H  0.67371188  0.65282150  0.76418154     0.42800
C2177       C  0.60621041  0.83954937  0.81366288    -0.06300
C2178       C  0.59838810  0.84301221  0.85622756    -0.33700
C2179       C  0.63130619  0.84072834  0.88741691     0.35600
C2180       C  0.67280834  0.83497549  0.87616085    -0.06600
C2181       C  0.68131218  0.83881984  0.83422639    -0.33600
C2182       C  0.64847010  0.84161255  0.80321562     0.35500
H2183       H  0.56629796  0.84118026  0.86523375     0.15800
O2184       O  0.62168628  0.83896895  0.92825414    -0.61100
H2185       H  0.71310898  0.83614452  0.82491014     0.15900
O2186       O  0.65752180  0.84002164  0.76205728    -0.61200
H2187       H  0.66463199  0.81023295  0.75554490     0.42800
H2188       H  0.61621271  0.80841630  0.93226056     0.42800
C2189       C  0.81819431  0.66719901  0.57592469    -0.06300
C2190       C  0.81308196  0.67050375  0.61924010    -0.33700
C2191       C  0.84753055  0.67899389  0.64857028     0.35600
C2192       C  0.88819112  0.68465899  0.63493516    -0.06600
C2193       C  0.89404399  0.67621329  0.59223726    -0.33600
C2194       C  0.85944064  0.66822158  0.56283895     0.35500
H2195       H  0.78196339  0.67204123  0.63023758     0.15800
O2196       O  0.84064097  0.68508846  0.69015624    -0.61100
H2197       H  0.92514040  0.67984240  0.58099142     0.15900
O2198       O  0.86595826  0.66597361  0.52096631    -0.61200
H2199       H  0.86799742  0.69581733  0.51293509     0.42800
H2200       H  0.84619451  0.65755092  0.70238479     0.42800
C2201       C  0.83865637  0.54205192  0.93789816    -0.06300
C2202       C  0.79929973  0.54085439  0.95454225    -0.33700
C2203       C  0.77455206  0.57606285  0.95350093     0.35600
C2204       C  0.78966677  0.61354940  0.93611228    -0.06600
C2205       C  0.82652176  0.61281153  0.91515828    -0.33600
C2206       C  0.85065809  0.57722600  0.91517003     0.35500
H2207       H  0.78920041  0.51400169  0.97157655     0.15800
O2208       O  0.73788836  0.57469894  0.97341900    -0.61100
H2209       H  0.83820068  0.64089852  0.90105695     0.15900
O2210       O  0.88831531  0.57961035  0.89716139    -0.61200
H2211       H  0.88504990  0.55879564  0.87283099     0.42800
H2212       H  0.71626713  0.56207669  0.95210662     0.42800
C2213       C  0.64831974  0.84743155  0.54280125    -0.06300
C2214       C  0.66307058  0.88779865  0.56035042    -0.33700
C2215       C  0.63846744  0.92291239  0.55772611     0.35600
C2216       C  0.59758720  0.91783503  0.53947384    -0.06600
C2217       C  0.58128144  0.87727468  0.52477952    -0.33600
C2218       C  0.60656294  0.84202133  0.52615724     0.35500
H2219       H  0.69499741  0.89280230  0.57407877     0.15800
O2220       O  0.65447971  0.96193991  0.57346073    -0.61100
H2221       H  0.54920432  0.87322020  0.51135469     0.15900
O2222       O  0.59112626  0.80350714  0.00849030    -0.61200
H2223       H  0.57956586  0.78848391  0.03178061     0.42800
H2224       H  0.66883708  0.97432508  0.55020459     0.42800
C2225       C  0.59907761  0.96910802  0.91329144    -0.06300
C2226       C  0.63981324  0.97321600  0.93347079    -0.33700
C2227       C  0.67503980  0.96406280  0.91163752     0.35600
C2228       C  0.66969734  0.95090658  0.86901097    -0.06600
C2229       C  0.62876239  0.94349506  0.85014745    -0.33600
C2230       C  0.59375242  0.95236954  0.87179300     0.35500
H2231       H  0.64528597  0.49161116  0.96009899     0.15800
O2232       O  0.71380334  0.47245261  0.92797544    -0.61100
H2233       H  0.62349095  0.93255344  0.81756133     0.15900
O2234       O  0.55455901  0.94500501  0.85175226    -0.61200
H2235       H  0.55027455  0.96942315  0.83407468     0.42800
H2236       H  0.71951328  0.44650357  0.94305200     0.42800
C2237       C  0.89999708  0.56498362  0.59835901    -0.06300
C2238       C  0.85768947  0.56276752  0.58297610    -0.33700
C2239       C  0.82559476  0.55882831  0.61035972     0.35600
C2240       C  0.83568664  0.55793927  0.65368868    -0.06600
C2241       C  0.87627282  0.06698126  0.66638572    -0.33600
C2242       C  0.90816532  0.06950484  0.63855321     0.35500
H2243       H  0.84943104  0.56006749  0.54959138     0.15800
O2244       O  0.78433435  0.55532025  0.59476361    -0.61100
H2245       H  0.88454078  0.06892716  0.69971258     0.15900
O2246       O  0.94903690  0.07493584  0.65469159    -0.61200
H2247       H  0.95689665  0.10521832  0.65117828     0.42800
H2248       H  0.78193865  0.53045211  0.57443858     0.42800
C2249       C  0.93529898  0.84852569  0.65980008    -0.06300
C2250       C  0.91829458  0.83892534  0.61843428    -0.33700
C2251       C  0.91265382  0.87073844  0.59087024     0.35600
C2252       C  0.92117488  0.91288936  0.60572589    -0.06600
C2253       C  0.92985108  0.92284442  0.64875422    -0.33600
C2254       C  0.93810172  0.89069365  0.67588016     0.35500
H2255       H  0.91423186  0.80638459  0.60579693     0.15800
O2256       O  0.90701415  0.85969942  0.54874313    -0.61100
H2257       H  0.43614498  0.95555140  0.66008217     0.15900
O2258       O  0.45341972  0.90104752  0.71622626    -0.61200
H2259       H  0.48405074  0.90632537  0.71465169     0.42800
H2260       H  0.87969817  0.87075852  0.53904774     0.42800
C2261       C  0.51657082  0.61796187  0.91061229    -0.06300
C2262       C  0.04330290  0.60892035  0.87922516    -0.33700
C2263       C  0.05234688  0.63878312  0.85101014     0.35600
C2264       C  0.53604341  0.67961537  0.85520052    -0.06600
C2265       C  0.50931424  0.68881272  0.88728604    -0.33600
C2266       C  0.49868461  0.65756635  0.91452388     0.35500
H2267       H  0.05671962  0.57801389  0.87606721     0.15800
O2268       O  0.07680406  0.62736320  0.81909476    -0.61100
H2269       H  0.49527697  0.71935258  0.89006123     0.15900
O2270       O  0.47145183  0.66599450  0.94482271    -0.61200
H2271       H  0.44315581  0.65742545  0.93154792     0.42800
H2272       H  0.05827612  0.60896793  0.79898885     0.42800
loop_ 
_geom_bond_atom_site_label_1 
_geom_bond_atom_site_label_2 
_geom_bond_distance 
_geom_bond_site_symmetry_2 
_ccdc_geom_bond_type 
C1            C2   1.523       .  S
C1            C7   1.530       .  S
C1            C5   1.531       .  S
C1          C120   1.528       .  S
C2            H9   1.087       .  S
C2            C3   1.368       .  D
C3            C4   1.578       .  S
C3           C62   1.509       .  S
C4            C8   1.599       .  S
C4            C6   1.580       .  S
C4           H10   1.110       .  S
C5           H11   1.087       .  S
C5            C6   1.359       .  D
C6           C36   1.518       .  S
C7           H12   1.087       .  S
C7            C8   1.373       .  D
C8           C94   1.527       .  S
C13          C14   1.541       .  S
C13          C19   1.526       .  S
C13          C17   1.535       .  S
C13         C140   1.523       .  S
C14          H21   1.083       .  S
C14          C15   1.377       .  D
C15          C16   1.557       .  S
C15         C109   1.499       .  S
C16          C20   1.581       .  S
C16          C18   1.566       .  S
C16          H22   1.110       .  S
C17          H23   1.087       .  S
C17          C18   1.356       .  D
C18          C51   1.497       .  S
C19          H24   1.080       .  S
C19          C20   1.363       .  D
C20          C82   1.518       .  S
O25          C33   1.272       .  A
O25       Co1749   2.019   1_455  S
O26          C34   1.260       .  A
O26       Co1182   1.910       .  S
O27         C319   1.277       .  A
O27        Co615   2.024       .  S
O28          C36   1.275       .  A
O28        Co332   2.064       .  S
O29          C35   1.254       .  A
O29         Co46   1.921       .  S
O30          C36   1.255       .  A
O30        Co613   1.983       .  S
O31          C34   1.273       .  A
O31         Co48   2.012   1_554  S
O32          C33   1.247       .  A
O32        Co615   1.874       .  S
C33         C237   1.457       .  S
C34         C264   1.445       .  S
C35         O311   1.277       .  A
C35         C228   1.459       .  S
O37          C50   1.289       .  A
O37         Co45   2.051       .  S
O38          C51   1.294       .  A
O38        Co614   2.104   1_545  S
O39          C52   1.245       .  A
O39         Co47   1.969       .  S
O40         C621   1.272       .  A
O40         Co48   2.006   1_554  S
O41         C621   1.261       .  A
O41       Co1182   1.957       .  S
O42        C1188   1.246       .  A
O42         Co45   1.986       .  S
O43          C50   1.273   1_565  A
O43        Co900   1.888       .  S
O44          C51   1.248       .  A
O44        Co331   1.928       .  S
Co45       O1729   2.014   1_545  S
Co45        O598   1.993   1_545  S
Co45        O617   2.076   1_545  S
Co46       O1162   1.910   1_455  S
Co46        O606   2.074       .  S
Co46       O1177   1.957   1_455  S
Co46       O1469   2.016   1_454  S
Co47        O595   2.066   1_545  S
Co47        O600   1.990   1_545  S
Co47        O328   1.928       .  S
Co47       O1753   1.973   1_445  S
Co48        O312   2.064       .  S
Co48        O895   1.879       .  S
Co48        O333   1.970       .  S
O49        Co613   2.097       .  S
O49        Co332   1.970       .  S
O49       Co1466   2.016       .  S
O49       Co1751   2.006       .  S
C50         C213   1.471       .  S
C52        O1178   1.246   1_455  A
C52         C273   1.454       .  S
C53         O608   1.275       .  A
C53         O609   1.257       .  A
C53         C249   1.488       .  S
O54          C62   1.263       .  A
O54         Co74   2.021       .  S
O55          C63   1.233       .  A
O55         Co75   1.942       .  S
O56          C64   1.265       .  A
O56        Co360   1.962   1_554  S
O57          C65   1.255       .  A
O57        Co361   1.942       .  S
O58          C64   1.279       .  A
O58         Co75   2.010       .  S
O59          C65   1.276       .  A
O59         Co74   2.009       .  S
O60          C63   1.262       .  A
O60         Co77   2.062   1_554  S
O61          C62   1.259       .  A
O61         Co76   1.988       .  S
C63         C201   1.479       .  S
C64         C168   1.444       .  S
C65         C216   1.471       .  S
O66          C79   1.270       .  A
O66         Co74   1.994       .  S
O67          C80   1.267       .  A
O67         Co75   2.033       .  S
O68          C81   1.265       .  A
O68         Co76   1.972       .  S
O69          C82   1.275       .  A
O69         Co77   2.051   1_554  S
O70          C82   1.280       .  A
O70         Co75   1.999       .  S
O71          C81   1.281       .  A
O71         Co74   2.040       .  S
O72          C79   1.260       .  A
O72        Co361   1.954       .  S
O73         C364   1.240       .  A
O73         Co76   1.934       .  S
Co74         O78   2.093       .  S
Co75        O362   2.007   1_554  S
Co76        O340   1.962       .  S
Co76         O78   2.061       .  S
Co77        O341   1.942       .  S
Co77        O356   1.954       .  S
Co77        O362   2.128       .  S
O78        Co359   2.007       .  S
O78        Co361   2.128       .  S
C79         C177   1.478       .  S
C80         O357   1.240       .  A
C80         C225   1.475       .  S
C81         C192   1.492       .  S
O83          C91   1.273       .  A
O83       Co1239   1.998   1_455  S
O84          C92   1.257       .  A
O84       Co1240   1.957       .  S
O85          C93   1.275       .  A
O85        Co105   2.027       .  S
O86          C94   1.315       .  A
O86        Co106   2.070       .  S
O87          C93   1.254       .  A
O87        Co104   1.919       .  S
O88          C94   1.295       .  A
O88        Co103   2.000       .  S
O89          C92   1.261       .  A
O89        Co106   1.977       .  S
O90          C91   1.263       .  A
O90        Co105   1.970       .  S
C91         C189   1.478       .  S
C92         C261   1.468       .  S
C93         C153   1.468       .  S
O95         C108   1.235       .  A
O95        Co103   2.040       .  S
O96         C109   1.264       .  A
O96        Co104   2.029       .  S
O97         C110   1.260       .  A
O97        Co105   1.936       .  S
O98         C111   1.290       .  A
O98        Co106   2.047       .  S
O99         C111   1.274       .  A
O99       Co1240   1.976       .  S
O100       C1246   1.278       .  A
O100       Co103   2.020       .  S
O101        C108   1.214       .  A
O101       Co106   1.938       .  S
O102        C109   1.256       .  A
O102       Co105   1.965       .  S
Co103      O1219   1.998       .  S
Co103       O107   2.148       .  S
Co104      O1220   1.957   1_455  S
Co104      O1235   1.976   1_455  S
Co104      O1243   2.072       .  S
Co105      O1243   2.038       .  S
Co106       O107   1.993       .  S
O107      Co1240   2.072       .  S
O107      Co1241   2.038       .  S
C108        C144   1.439       .  S
C110       O1236   1.278       .  A
C110        C276   1.475       .  S
C111        C204   1.486       .  S
O112        C120   1.268       .  A
O112       Co700   1.970       .  S
O113        C121   1.256       .  A
O113       Co701   1.996       .  S
O114        C122   1.268       .  A
O114       Co134   1.950       .  S
O115        C123   1.271       .  A
O115       Co135   2.016       .  S
O116        C122   1.295       .  A
O116       Co133   2.042       .  S
O117        C123   1.251       .  A
O117       Co132   1.924       .  S
O118        C121   1.248       .  A
O118       Co135   2.046       .  S
O119        C120   1.276       .  A
O119       Co134   2.028       .  S
C121        C252   1.478       .  S
C122        C165   1.464       .  S
C123        C141   1.457       .  S
O124        C137   1.276       .  A
O124       Co132   2.020       .  S
O125        C138   1.231       .  A
O125       Co133   1.984       .  S
O126        C139   1.237       .  A
O126       Co134   1.906       .  S
O127        C140   1.285       .  A
O127       Co135   2.004       .  S
O128        C140   1.281       .  A
O128       Co701   1.972       .  S
O129        C139   1.254       .  A
O129       Co700   1.989       .  S
O130        C137   1.265       .  A
O130       Co135   1.966       .  S
O131        C138   1.239       .  A
O131       Co134   1.954       .  S
Co132       O680   1.969   1_545  S
Co132       O697   1.998   1_545  S
Co132       O704   2.055   1_545  S
Co133       O681   1.991       .  S
Co133       O696   1.983       .  S
Co133       O136   2.052       .  S
Co134       O136   2.042       .  S
Co135       O704   2.091   1_545  S
O136       Co700   2.055       .  S
O136       Co703   2.090       .  S
C137        C180   1.474       .  S
C138        C156   1.447       .  S
C139        C240   1.457       .  S
C141        C142   1.397       .  A
C141        C146   1.415       .  A
C142        C143   1.396       .  A
C142        H147   1.084       .  S
C143        C144   1.408       .  A
C143        O148   1.373       .  S
C144        C145   1.390       .  A
C145        C146   1.385       .  A
C145        H149   1.085       .  S
C146        O150   1.374       .  S
O148        H152   0.992       .  S
O150        H151   0.992       .  S
C153        C154   1.409       .  A
C153        C158   1.405       .  A
C154        C155   1.386       .  A
C154        H159   1.084       .  S
C155        C156   1.396       .  A
C155        O160   1.372       .  S
C156        C157   1.404       .  A
C157        C158   1.400       .  A
C157        H161   1.083       .  S
C158        O162   1.373       .  S
O160        H164   0.995       .  S
O162        H163   0.990       .  S
C165        C166   1.411       .  A
C165        C170   1.403       .  A
C166        C167   1.391       .  A
C166        H171   1.084       .  S
C167        C168   1.399       .  A
C167        O172   1.373       .  S
C168        C169   1.401       .  A
C169        C170   1.385       .  A
C169        H173   1.084       .  S
C170        O174   1.370       .  S
O172        H176   0.992       .  S
O174        H175   0.992       .  S
C177        C178   1.402       .  A
C177        C182   1.417       .  A
C178        C179   1.400       .  A
C178        H183   1.085       .  S
C179        C180   1.409       .  A
C179        O184   1.372       .  S
C180        C181   1.401       .  A
C181        C182   1.402       .  A
C181        H185   1.081       .  S
C182        O186   1.372       .  S
O184        H188   0.991       .  S
O186        H187   0.992       .  S
C189        C190   1.405       .  A
C189        C194   1.411       .  A
C190        C191   1.408       .  A
C190        H195   1.084       .  S
C191        C192   1.414       .  A
C191        O196   1.371       .  S
C192        C193   1.402       .  A
C193        C194   1.404       .  A
C193        H197   1.083       .  S
C194        O198   1.370       .  S
O196        H200   0.991       .  S
O198        H199   0.992       .  S
C201        C202   1.410       .  A
C201        C206   1.408       .  A
C202        C203   1.404       .  A
C202        H207   1.078       .  S
C203        C204   1.404       .  A
C203        O208   1.372       .  S
C204        C205   1.407       .  A
C205        C206   1.406       .  A
C205        H209   1.084       .  S
C206        O210   1.372       .  S
O208        H212   0.991       .  S
O210        H211   0.993       .  S
C213        C214   1.397       .  A
C213        C218   1.418       .  A
C214        C215   1.393       .  A
C214        H219   1.084       .  S
C215        C216   1.418       .  A
C215        O220   1.372       .  S
C216        C217   1.395       .  A
C217        C218   1.390       .  A
C217        H221   1.082       .  S
C218        O222   1.371       .  S
O220        H224   0.992       .  S
O222        H223   0.992       .  S
C225        C226   1.418       .  A
C225        C230   1.399       .  A
C226        C227   1.386       .  A
C226        H231   1.084       .  S
C227        C228   1.394       .  A
C227        O232   1.377       .  S
C228        C229   1.412       .  A
C229        C230   1.401       .  A
C229        H233   1.084       .  S
C230        O518   1.370       .  S
O232        H236   0.992       .  S
O234        C514   1.370       .  S
O234        H235   0.991       .  S
C237        C238   1.410       .  A
C237        C242   1.398       .  A
C238        C239   1.384       .  A
C238        H811   1.081       .  S
C239        C240   1.399       .  A
C239        O812   1.371       .  S
C240        C241   1.410       .  A
C241        C242   1.386       .  A
C241        H245   1.083       .  S
C242        O246   1.372       .  S
H243        C806   1.083       .  S
O244        C807   1.371       .  S
O244        H248   0.992       .  S
O246        H247   0.990       .  S
C249        C250   1.403       .  A
C249        C822   1.419       .  A
C250        C251   1.405       .  A
C250        H255   1.083       .  S
C251        C252   1.410       .  A
C251        O256   1.376       .  S
C252        C821   1.398       .  A
C253        C254   1.401       .  A
C253        C820   1.398       .  A
C253        H257   1.080       .  S
C254        C817   1.417       .  A
C254        O258   1.371       .  S
O256        H260   0.991       .  S
O258        H259   0.994       .  S
C261        C262   1.412       .  A
C261        C266   1.401       .  A
C262        C263   1.385       .  A
C262        H267   1.084       .  S
C263        C264   1.400       .  A
C263        O268   1.376       .  S
C264        C265   1.406       .  A
C265        C266   1.396       .  A
C265       H1405   1.084       .  S
C266       O1406   1.371       .  S
O268        H272   0.990       .  S
H269       C1401   1.084       .  S
O270       C1402   1.371       .  S
O270        H271   0.991       .  S
C273        C278   1.405       .  A
C273       C1410   1.390       .  A
C274        C275   1.385       .  A
C274       C1409   1.390       .  A
C274        H279   1.085       .  S
C275       C1412   1.416       .  A
C275        O280   1.371       .  S
C276        C277   1.407       .  A
C276       C1411   1.416       .  A
C277        C278   1.404       .  A
C277        H281   1.083   1_455  S
C278        O282   1.371   1_455  S
O280        H284   0.993       .  S
O282        H283   0.994       .  S
C285        C286   1.523       .  S
C285        C291   1.530       .  S
C285        C289   1.531       .  S
C285        C404   1.528       .  S
C286        H293   1.087       .  S
C286        C287   1.368       .  D
C287        C288   1.578       .  S
C287        C346   1.509       .  S
C288        C292   1.599       .  S
C288        C290   1.580       .  S
C288        H294   1.110       .  S
C289        H295   1.087       .  S
C289        C290   1.359       .  D
C290        C320   1.518       .  S
C291        H296   1.087       .  S
C291        C292   1.373       .  D
C292        C378   1.527       .  S
C297        C298   1.541       .  S
C297        C303   1.526       .  S
C297        C301   1.535       .  S
C297        C424   1.523       .  S
C298        H305   1.083       .  S
C298        C299   1.377       .  D
C299        C300   1.557       .  S
C299        C393   1.499       .  S
C300        C304   1.581       .  S
C300        C302   1.566       .  S
C300        H306   1.110       .  S
C301        H307   1.087       .  S
C301        C302   1.356       .  D
C302        C335   1.497       .  S
C303        H308   1.080       .  S
C303        C304   1.363       .  D
C304        C366   1.518       .  S
O309        C317   1.272       .  A
O309      Co2033   2.019   1_455  S
O310        C318   1.260       .  A
O310      Co1466   1.910       .  S
O311       Co899   2.024       .  S
O312        C320   1.275       .  A
O313        C319   1.254       .  A
O313       Co330   1.921       .  S
O314        C320   1.255       .  A
O314       Co897   1.983       .  S
O315        C318   1.273       .  A
O315       Co332   2.012       .  S
O316        C317   1.247       .  A
O316       Co899   1.874   1_556  S
C317        C521   1.457       .  S
C318        C548   1.445       .  S
C319        C512   1.459       .  S
O321        C334   1.289       .  A
O321       Co329   2.051       .  S
O322        C335   1.294       .  A
O322       Co898   2.104   1_545  S
O323        C336   1.245       .  A
O323       Co331   1.969   1_556  S
O324        C905   1.272       .  A
O324       Co332   2.006       .  S
O325        C905   1.261       .  A
O325      Co1466   1.957       .  S
O326       C1472   1.246       .  A
O326       Co329   1.986       .  S
O327        C334   1.273   1_565  A
O327       Co616   1.888       .  S
O328        C335   1.248       .  A
Co329      O2013   2.014   1_545  S
Co329       O882   1.993   1_545  S
Co329       O901   2.076   1_545  S
Co330      O1446   1.910   1_455  S
Co330       O890   2.074       .  S
Co330      O1461   1.957   1_455  S
Co330      O1185   2.016   1_455  S
Co331       O879   2.066   1_545  S
Co331       O884   1.990   1_544  S
Co331      O2037   1.973   1_444  S
Co332       O611   1.879       .  S
O333       Co897   2.097       .  S
O333      Co1182   2.016   1_556  S
O333      Co2035   2.006   1_556  S
C334        C497   1.471       .  S
C336       O1462   1.246   1_455  A
C336        C557   1.454       .  S
C337        O892   1.275       .  A
C337        O893   1.257       .  A
C337        C533   1.488       .  S
O338        C346   1.263       .  A
O338       Co358   2.021       .  S
O339        C347   1.233       .  A
O339       Co359   1.942       .  S
O340        C348   1.265       .  A
O341        C349   1.255       .  A
O342        C348   1.279       .  A
O342       Co359   2.010       .  S
O343        C349   1.276       .  A
O343       Co358   2.009       .  S
O344        C347   1.262       .  A
O344       Co361   2.062       .  S
O345        C346   1.259       .  A
O345       Co360   1.989       .  S
C347        C485   1.479       .  S
C348        C452   1.444       .  S
C349        C500   1.471       .  S
O350        C363   1.270       .  A
O350       Co358   1.994       .  S
O351        C364   1.267       .  A
O351       Co359   2.033       .  S
O352        C365   1.265       .  A
O352       Co360   1.972       .  S
O353        C366   1.275       .  A
O353       Co361   2.051       .  S
O354        C366   1.280       .  A
O354       Co359   1.999       .  S
O355        C365   1.281       .  A
O355       Co358   2.040       .  S
O356        C363   1.260       .  A
O357       Co360   1.934   1_554  S
Co358       O362   2.093       .  S
Co360       O362   2.061       .  S
C363        C461   1.478       .  S
C364        C509   1.475       .  S
C365        C476   1.492       .  S
O367        C375   1.273       .  A
O367      Co1523   1.998   1_455  S
O368        C376   1.257       .  A
O368      Co1524   1.957       .  S
O369        C377   1.275       .  A
O369       Co389   2.027       .  S
O370        C378   1.315       .  A
O370       Co390   2.070       .  S
O371        C377   1.254       .  A
O371       Co388   1.919       .  S
O372        C378   1.295       .  A
O372       Co387   2.000       .  S
O373        C376   1.261       .  A
O373       Co390   1.977       .  S
O374        C375   1.263       .  A
O374       Co389   1.970       .  S
C375        C473   1.478       .  S
C376        C545   1.468       .  S
C377        C437   1.468       .  S
O379        C392   1.235       .  A
O379       Co387   2.040       .  S
O380        C393   1.264       .  A
O380       Co388   2.029       .  S
O381        C394   1.260       .  A
O381       Co389   1.936       .  S
O382        C395   1.290       .  A
O382       Co390   2.047       .  S
O383        C395   1.274       .  A
O383      Co1524   1.976       .  S
O384       C1530   1.278       .  A
O384       Co387   2.020       .  S
O385        C392   1.214       .  A
O385       Co390   1.938       .  S
O386        C393   1.256       .  A
O386       Co389   1.965       .  S
Co387      O1503   1.998       .  S
Co387       O391   2.148       .  S
Co388      O1504   1.957   1_455  S
Co388      O1519   1.976   1_455  S
Co388      O1527   2.072       .  S
Co389      O1527   2.038       .  S
Co390       O391   1.993       .  S
O391      Co1524   2.072       .  S
O391      Co1525   2.038       .  S
C392        C428   1.439       .  S
C394       O1520   1.278       .  A
C394        C560   1.475       .  S
C395        C488   1.486       .  S
O396        C404   1.268       .  A
O396       Co984   1.970       .  S
O397        C405   1.256       .  A
O397       Co985   1.996       .  S
O398        C406   1.268       .  A
O398       Co418   1.950       .  S
O399        C407   1.271       .  A
O399       Co419   2.016       .  S
O400        C406   1.295       .  A
O400       Co417   2.042       .  S
O401        C407   1.251       .  A
O401       Co416   1.924       .  S
O402        C405   1.248       .  A
O402       Co419   2.046       .  S
O403        C404   1.276       .  A
O403       Co418   2.028       .  S
C405        C536   1.478       .  S
C406        C449   1.464       .  S
C407        C425   1.457       .  S
O408        C421   1.276       .  A
O408       Co416   2.020       .  S
O409        C422   1.231       .  A
O409       Co417   1.984       .  S
O410        C423   1.237       .  A
O410       Co418   1.906       .  S
O411        C424   1.285       .  A
O411       Co419   2.004       .  S
O412        C424   1.281       .  A
O412       Co985   1.972       .  S
O413        C423   1.254       .  A
O413       Co984   1.989       .  S
O414        C421   1.265       .  A
O414       Co419   1.965       .  S
O415        C422   1.239       .  A
O415       Co418   1.954       .  S
Co416       O964   1.969   1_545  S
Co416       O981   1.998   1_545  S
Co416       O988   2.055   1_545  S
Co417       O965   1.991       .  S
Co417       O980   1.983       .  S
Co417       O420   2.052       .  S
Co418       O420   2.042       .  S
Co419       O988   2.091   1_545  S
O420       Co984   2.055       .  S
O420       Co987   2.090       .  S
C421        C464   1.474       .  S
C422        C440   1.447       .  S
C423        C524   1.457       .  S
C425        C426   1.397       .  A
C425        C430   1.415       .  A
C426        C427   1.396       .  A
C426        H431   1.084       .  S
C427        C428   1.408       .  A
C427        O432   1.373       .  S
C428        C429   1.390       .  A
C429        C430   1.385       .  A
C429        H433   1.085       .  S
C430        O434   1.374       .  S
O432        H436   0.992       .  S
O434        H435   0.992       .  S
C437        C438   1.409       .  A
C437        C442   1.405       .  A
C438        C439   1.386       .  A
C438        H443   1.084       .  S
C439        C440   1.396       .  A
C439        O444   1.372       .  S
C440        C441   1.404       .  A
C441        C442   1.400       .  A
C441        H445   1.083       .  S
C442        O446   1.374       .  S
O444        H448   0.995       .  S
O446        H447   0.990       .  S
C449        C450   1.411       .  A
C449        C454   1.403       .  A
C450        C451   1.391       .  A
C450        H455   1.084       .  S
C451        C452   1.399       .  A
C451        O456   1.373       .  S
C452        C453   1.400       .  A
C453        C454   1.385       .  A
C453        H457   1.084       .  S
C454        O458   1.370       .  S
O456        H460   0.992       .  S
O458        H459   0.992       .  S
C461        C462   1.402       .  A
C461        C466   1.417       .  A
C462        C463   1.400       .  A
C462        H467   1.085       .  S
C463        C464   1.409       .  A
C463        O468   1.372       .  S
C464        C465   1.401       .  A
C465        C466   1.402       .  A
C465        H469   1.081       .  S
C466        O470   1.372       .  S
O468        H472   0.991       .  S
O470        H471   0.992       .  S
C473        C474   1.405       .  A
C473        C478   1.411       .  A
C474        C475   1.408       .  A
C474        H479   1.084       .  S
C475        C476   1.414       .  A
C475        O480   1.371       .  S
C476        C477   1.402       .  A
C477        C478   1.404       .  A
C477        H481   1.083       .  S
C478        O482   1.370       .  S
O480        H484   0.991       .  S
O482        H483   0.991       .  S
C485        C486   1.410       .  A
C485        C490   1.408       .  A
C486        C487   1.404       .  A
C486        H491   1.078       .  S
C487        C488   1.404       .  A
C487        O492   1.372       .  S
C488        C489   1.407       .  A
C489        C490   1.406       .  A
C489        H493   1.084       .  S
C490        O494   1.372       .  S
O492        H496   0.991       .  S
O494        H495   0.993       .  S
C497        C498   1.397       .  A
C497        C502   1.418       .  A
C498        C499   1.392       .  A
C498        H503   1.084       .  S
C499        C500   1.418       .  A
C499        O504   1.372       .  S
C500        C501   1.395       .  A
C501        C502   1.390       .  A
C501        H505   1.082       .  S
C502        O506   1.371       .  S
O504        H508   0.992       .  S
O506        H507   0.992       .  S
C509        C510   1.418       .  A
C509        C514   1.399       .  A
C510        C511   1.386       .  A
C510        H515   1.084       .  S
C511        C512   1.394       .  A
C511        O516   1.377       .  S
C512        C513   1.412       .  A
C513        C514   1.401       .  A
C513        H517   1.084       .  S
O516        H520   0.992       .  S
O518        H519   0.991       .  S
C521        C522   1.410       .  A
C521        C526   1.398       .  A
C522        C523   1.384       .  A
C522       H1095   1.081       .  S
C523        C524   1.399       .  A
C523       O1096   1.371       .  S
C524        C525   1.410       .  A
C525        C526   1.386       .  A
C525        H529   1.083       .  S
C526        O530   1.372       .  S
H527       C1090   1.083       .  S
O528       C1091   1.371       .  S
O528        H532   0.992       .  S
O530        H531   0.990       .  S
C533        C534   1.403       .  A
C533       C1106   1.419       .  A
C534        C535   1.405       .  A
C534        H539   1.083       .  S
C535        C536   1.410       .  A
C535        O540   1.376       .  S
C536       C1105   1.398       .  A
C537       C1104   1.398       .  A
C537        C538   1.401       .  A
C537        H541   1.080       .  S
C538       C1101   1.417       .  A
C538        O542   1.371       .  S
O540        H544   0.991       .  S
O542        H543   0.994       .  S
C545        C546   1.412       .  A
C545        C550   1.401       .  A
C546        C547   1.385       .  A
C546        H551   1.084       .  S
C547        C548   1.400       .  A
C547        O552   1.376       .  S
C548        C549   1.406       .  A
C549        C550   1.396       .  A
C549       H1689   1.084       .  S
C550       O1690   1.371       .  S
O552        H556   0.990       .  S
H553       C1685   1.084       .  S
O554       C1686   1.371       .  S
O554        H555   0.991       .  S
C557       C1694   1.390       .  A
C557        C562   1.405       .  A
C558       C1693   1.390       .  A
C558        C559   1.385       .  A
C558        H563   1.085       .  S
C559       C1696   1.416       .  A
C559        O564   1.371       .  S
C560       C1695   1.416       .  A
C560        C561   1.407       .  A
C561        C562   1.404       .  A
C561        H565   1.083   1_455  S
C562        O566   1.371   1_455  S
O564        H568   0.993       .  S
O566        H567   0.994       .  S
C569        C570   1.521       .  S
C569        C575   1.531       .  S
C569        C573   1.526       .  S
C569        C688   1.523       .  S
C570        H577   1.088       .  S
C570        C571   1.366       .  D
C571        C572   1.583       .  S
C571        C630   1.515       .  S
C572        C576   1.600       .  S
C572        C574   1.578       .  S
C572        H578   1.110       .  S
C573        H579   1.087       .  S
C573        C574   1.357       .  D
C574        C604   1.512       .  S
C575        H580   1.086       .  S
C575        C576   1.374       .  D
C576        C662   1.526       .  S
C581        C582   1.543       .  S
C581        C587   1.526       .  S
C581        C585   1.540       .  S
C581        C708   1.530       .  S
C582        H589   1.082       .  S
C582        C583   1.378       .  D
C583        C584   1.549       .  S
C583        C677   1.493       .  S
C584        C588   1.591       .  S
C584        C586   1.570       .  S
C584        H590   1.110       .  S
C585        H591   1.087       .  S
C585        C586   1.364       .  D
C586        C619   1.516       .  S
C587        H592   1.082       .  S
C587        C588   1.363       .  D
C588        C650   1.532       .  S
O593        C601   1.276       .  A
O593      Co1181   2.014   1_465  S
O594        C602   1.262       .  A
O594      Co1750   1.925       .  S
O595        C887   1.292       .  A
O596        C604   1.275       .  A
O596       Co900   2.050       .  S
O597        C603   1.251       .  A
O597       Co614   1.931       .  S
O598        C604   1.263       .  A
O599        C602   1.270       .  A
O599       Co616   1.998   1_554  S
O600        C601   1.283       .  A
C601        C805   1.471       .  S
C602        C832   1.447       .  S
C603        O879   1.292       .  A
C603        C796   1.457       .  S
O605        C618   1.294       .  A
O605       Co613   2.067       .  S
O606        C619   1.279       .  A
O607        C620   1.243       .  A
O607       Co615   1.924       .  S
O608       Co616   2.024   1_544  S
O609      Co1750   1.944   1_545  S
O610       C1756   1.252       .  A
O610       Co613   1.989       .  S
O611        C618   1.273       .  A
O612        C619   1.246       .  A
O612       Co899   1.977       .  S
Co613      O1161   2.019       .  S
Co614      O1730   1.925   1_455  S
Co614      O1745   1.944   1_465  S
Co614      O2037   2.062   1_454  S
Co615       O896   1.977       .  S
Co615      O1185   2.006   1_455  S
Co616       O880   2.050       .  S
Co616       O901   1.968       .  S
O617      Co1183   1.973   1_565  S
O617       Co900   1.968       .  S
O617      Co2034   2.062       .  S
C618        C781   1.471       .  S
C620       O1746   1.252   1_455  A
C620        C841   1.439       .  S
C621        C817   1.484       .  S
O622        C630   1.262       .  A
O622       Co642   2.024       .  S
O623        C631   1.232       .  A
O623       Co643   1.944       .  S
O624        C632   1.263       .  A
O624       Co928   1.962   1_554  S
O625        C633   1.256       .  A
O625       Co929   1.945       .  S
O626        C632   1.276       .  A
O626       Co643   2.000       .  S
O627        C633   1.277       .  A
O627       Co642   2.007       .  S
O628        C631   1.265       .  A
O628       Co645   2.075   1_554  S
O629        C630   1.262       .  A
O629       Co644   1.996       .  S
C631        C769   1.481       .  S
C632        C736   1.447       .  S
C633        C784   1.470       .  S
O634        C647   1.271       .  A
O634       Co642   1.995       .  S
O635        C648   1.270       .  A
O635       Co643   2.022       .  S
O636        C649   1.266       .  A
O636       Co644   1.967       .  S
O637        C650   1.275       .  A
O637       Co645   2.051   1_554  S
O638        C650   1.287       .  A
O638       Co643   2.021       .  S
O639        C649   1.283       .  A
O639       Co642   2.046       .  S
O640        C647   1.261       .  A
O640       Co929   1.955       .  S
O641        C932   1.250       .  A
O641       Co644   1.948       .  S
Co642       O646   2.087       .  S
Co643       O930   1.993   1_554  S
Co644       O908   1.962       .  S
Co644       O646   2.053       .  S
Co645       O909   1.945       .  S
Co645       O924   1.955       .  S
Co645       O930   2.129       .  S
O646       Co927   1.993       .  S
O646       Co929   2.129       .  S
C647        C745   1.478       .  S
C648        O925   1.250       .  A
C648        C793   1.475       .  S
C649        C760   1.493       .  S
O651        C659   1.274       .  A
O651      Co1807   2.003   1_455  S
O652        C660   1.257       .  A
O652      Co1808   1.955       .  S
O653        C661   1.274       .  A
O653       Co673   2.025       .  S
O654        C662   1.315       .  A
O654       Co674   2.073       .  S
O655        C661   1.255       .  A
O655       Co672   1.921       .  S
O656        C662   1.295       .  A
O656       Co671   1.997       .  S
O657        C660   1.261       .  A
O657       Co674   1.973       .  S
O658        C659   1.262       .  A
O658       Co673   1.965       .  S
C659        C757   1.478       .  S
C660        C829   1.464       .  S
C661        C721   1.465       .  S
O663        C676   1.237       .  A
O663       Co671   2.046       .  S
O664        C677   1.265       .  A
O664       Co672   2.026       .  S
O665        C678   1.259       .  A
O665       Co673   1.930       .  S
O666        C679   1.290       .  A
O666       Co674   2.046       .  S
O667        C679   1.275       .  A
O667      Co1808   1.982       .  S
O668       C1814   1.274       .  A
O668       Co671   2.009       .  S
O669        C676   1.215       .  A
O669       Co674   1.940       .  S
O670        C677   1.254       .  A
O670       Co673   1.957       .  S
Co671      O1787   2.003       .  S
Co671       O675   2.144       .  S
Co672      O1788   1.955   1_455  S
Co672      O1803   1.982   1_455  S
Co672      O1811   2.070       .  S
Co673      O1811   2.040       .  S
Co674       O675   1.992       .  S
O675      Co1808   2.070       .  S
O675      Co1809   2.040       .  S
C676        C712   1.442       .  S
C678       O1804   1.274       .  A
C678        C844   1.465       .  S
C679        C772   1.491       .  S
O680        C688   1.269       .  A
O681        C689   1.255       .  A
O682        C690   1.270       .  A
O682       Co702   1.963       .  S
O683        C691   1.272       .  A
O683       Co703   2.020       .  S
O684        C690   1.294       .  A
O684       Co701   2.037   1_565  S
O685        C691   1.250       .  A
O685       Co700   1.920       .  S
O686        C689   1.246       .  A
O686       Co703   2.039       .  S
O687        C688   1.274       .  A
O687       Co702   2.017       .  S
C689        C820   1.472       .  S
C690        C733   1.465       .  S
C691        C709   1.458       .  S
O692        C705   1.277       .  A
O692       Co700   2.024       .  S
O693        C706   1.231       .  A
O693       Co701   1.986   1_565  S
O694        C707   1.242       .  A
O694       Co702   1.920       .  S
O695        C708   1.286       .  A
O695       Co703   2.006       .  S
O696        C708   1.282       .  A
O697        C707   1.255       .  A
O698        C705   1.265       .  A
O698       Co703   1.965       .  S
O699        C706   1.238       .  A
O699       Co702   1.953       .  S
Co701       O704   2.050   1_545  S
Co702       O704   2.040       .  S
C705        C748   1.477       .  S
C706        C724   1.447       .  S
C707        C808   1.472       .  S
C709        C710   1.397       .  A
C709        C714   1.415       .  A
C710        C711   1.397       .  A
C710        H715   1.084       .  S
C711        C712   1.408       .  A
C711        O716   1.372       .  S
C712        C713   1.390       .  A
C713        C714   1.385       .  A
C713        H717   1.085       .  S
C714        O718   1.374       .  S
O716        H720   0.992       .  S
O718        H719   0.991       .  S
C721        C722   1.408       .  A
C721        C726   1.405       .  A
C722        C723   1.385       .  A
C722        H727   1.084       .  S
C723        C724   1.395       .  A
C723        O728   1.372       .  S
C724        C725   1.405       .  A
C725        C726   1.401       .  A
C725        H729   1.083       .  S
C726        O730   1.373       .  S
O728        H732   0.994       .  S
O730        H731   0.990       .  S
C733        C734   1.409       .  A
C733        C738   1.406       .  A
C734        C735   1.391       .  A
C734        H739   1.084       .  S
C735        C736   1.399       .  A
C735        O740   1.373       .  S
C736        C737   1.400       .  A
C737        C738   1.386       .  A
C737        H741   1.084       .  S
C738        O742   1.370       .  S
O740        H744   0.992       .  S
O742        H743   0.992       .  S
C745        C746   1.402       .  A
C745        C750   1.416       .  A
C746        C747   1.400       .  A
C746        H751   1.085       .  S
C747        C748   1.410       .  A
C747        O752   1.372       .  S
C748        C749   1.400       .  A
C749        C750   1.402       .  A
C749        H753   1.080       .  S
C750        O754   1.372       .  S
O752        H756   0.991       .  S
O754        H755   0.992       .  S
C757        C758   1.404       .  A
C757        C762   1.413       .  A
C758        C759   1.408       .  A
C758        H763   1.084       .  S
C759        C760   1.414       .  A
C759        O764   1.370       .  S
C760        C761   1.401       .  A
C761        C762   1.405       .  A
C761        H765   1.083       .  S
C762        O766   1.370       .  S
O764        H768   0.991       .  S
O766        H767   0.993       .  S
C769        C770   1.409       .  A
C769        C774   1.409       .  A
C770        C771   1.405       .  A
C770        H775   1.079       .  S
C771        C772   1.406       .  A
C771        O776   1.372       .  S
C772        C773   1.408       .  A
C773        C774   1.408       .  A
C773        H777   1.083       .  S
C774        O778   1.372       .  S
O776        H780   0.992       .  S
O778        H779   0.992       .  S
C781        C782   1.399       .  A
C781        C786   1.416       .  A
C782        C783   1.392       .  A
C782        H787   1.084       .  S
C783        C784   1.417       .  A
C783        O788   1.372       .  S
C784        C785   1.395       .  A
C785        C786   1.390       .  A
C785        H789   1.082       .  S
C786        O790   1.371       .  S
O788        H792   0.993       .  S
O790        H791   0.990       .  S
C793        C794   1.415       .  A
C793        C798   1.402       .  A
C794        C795   1.389       .  A
C794        H799   1.085       .  S
C795        C796   1.393       .  A
C795        O800   1.372       .  S
C796        C797   1.408       .  A
C797        C798   1.404       .  A
C797        H801   1.084       .  S
C798       O1086   1.370       .  S
O800        H804   0.992       .  S
O802       C1082   1.370       .  S
O802        H803   0.991       .  S
C805        C806   1.411       .  A
C805        C810   1.403       .  A
C806        C807   1.398       .  A
C807        C808   1.405       .  A
C808        C809   1.408       .  A
C809        C810   1.387       .  A
C809        H813   1.083       .  S
C810        O814   1.373       .  S
O812        H816   0.992       .  S
O814        H815   0.991       .  S
C817        C818   1.404       .  A
C818        C819   1.401       .  A
C818        H823   1.083       .  S
C819        C820   1.408       .  A
C819        O824   1.375       .  S
C821        C822   1.402       .  A
C821        H825   1.082       .  S
C822        O826   1.371       .  S
O824        H828   0.991       .  S
O826        H827   0.994       .  S
C829        C830   1.412       .  A
C829        C834   1.400       .  A
C830        C831   1.384       .  A
C830        H835   1.084       .  S
C831        C832   1.400       .  A
C831        O836   1.375       .  S
C832        C833   1.406       .  A
C833        C834   1.395       .  A
C833       H1973   1.084       .  S
C834       O1974   1.371       .  S
O836        H840   0.990       .  S
H837       C1969   1.084       .  S
O838       C1970   1.371       .  S
O838        H839   0.991       .  S
C841       C1978   1.389       .  A
C841        C846   1.401   1_455  A
C842       C1977   1.389       .  A
C842        C843   1.378       .  A
C842        H847   1.086       .  S
C843       C1980   1.413       .  A
C843        O848   1.372       .  S
C844       C1979   1.413       .  A
C844        C845   1.408       .  A
C845        C846   1.400   1_455  A
C845        H849   1.083   1_455  S
C846        O850   1.371       .  S
O848        H852   0.991       .  S
O850        H851   0.993       .  S
C853        C854   1.521       .  S
C853        C859   1.531       .  S
C853        C857   1.526       .  S
C853        C972   1.523       .  S
C854        H861   1.088       .  S
C854        C855   1.366       .  D
C855        C856   1.583       .  S
C855        C914   1.515       .  S
C856        C860   1.599       .  S
C856        C858   1.578       .  S
C856        H862   1.110       .  S
C857        H863   1.087       .  S
C857        C858   1.357       .  D
C858        C888   1.512       .  S
C859        H864   1.086       .  S
C859        C860   1.374       .  D
C860        C946   1.526       .  S
C865        C866   1.543       .  S
C865        C871   1.526       .  S
C865        C869   1.540       .  S
C865        C992   1.530       .  S
C866        H873   1.082       .  S
C866        C867   1.378       .  D
C867        C868   1.549       .  S
C867        C961   1.493       .  S
C868        C872   1.591       .  S
C868        C870   1.570       .  S
C868        H874   1.110       .  S
C869        H875   1.087       .  S
C869        C870   1.364       .  D
C870        C903   1.516       .  S
C871        H876   1.082       .  S
C871        C872   1.363       .  D
C872        C934   1.532       .  S
O877        C885   1.276       .  A
O877      Co1465   2.014   1_465  S
O878        C886   1.262       .  A
O878      Co2034   1.925       .  S
O880        C888   1.275       .  A
O881        C887   1.251       .  A
O881       Co898   1.931       .  S
O882        C888   1.263       .  A
O883        C886   1.270       .  A
O883       Co900   1.998       .  S
O884        C885   1.283       .  A
C885       C1089   1.471       .  S
C886       C1116   1.447       .  S
C887       C1080   1.458       .  S
O889        C902   1.294       .  A
O889       Co897   2.067       .  S
O890        C903   1.279       .  A
O891        C904   1.243       .  A
O891       Co899   1.924   1_556  S
O892       Co900   2.024   1_545  S
O893      Co2034   1.944   1_545  S
O894       C2040   1.252       .  A
O894       Co897   1.989       .  S
O895        C902   1.273       .  A
O896        C903   1.246       .  A
Co897      O1445   2.019       .  S
Co898      O2014   1.925   1_455  S
Co898      O2029   1.944   1_465  S
Co898      O1753   2.062   1_455  S
Co899      O1469   2.006   1_454  S
O901      Co1467   1.973   1_566  S
O901      Co1750   2.062   1_556  S
C902       C1065   1.471       .  S
C904       O2030   1.252   1_455  A
C904       C1125   1.439       .  S
C905       C1101   1.484       .  S
O906        C914   1.262       .  A
O906       Co926   2.024       .  S
O907        C915   1.232       .  A
O907       Co927   1.944       .  S
O908        C916   1.263       .  A
O909        C917   1.256       .  A
O910        C916   1.276       .  A
O910       Co927   2.000       .  S
O911        C917   1.277       .  A
O911       Co926   2.007       .  S
O912        C915   1.265       .  A
O912       Co929   2.075       .  S
O913        C914   1.262       .  A
O913       Co928   1.996       .  S
C915       C1053   1.481       .  S
C916       C1020   1.447       .  S
C917       C1068   1.470       .  S
O918        C931   1.271       .  A
O918       Co926   1.995       .  S
O919        C932   1.270       .  A
O919       Co927   2.022       .  S
O920        C933   1.266       .  A
O920       Co928   1.967       .  S
O921        C934   1.275       .  A
O921       Co929   2.051       .  S
O922        C934   1.287       .  A
O922       Co927   2.021       .  S
O923        C933   1.283       .  A
O923       Co926   2.046       .  S
O924        C931   1.261       .  A
O925       Co928   1.948   1_554  S
Co926       O930   2.087       .  S
Co928       O930   2.053       .  S
C931       C1029   1.478       .  S
C932       C1077   1.475       .  S
C933       C1044   1.493       .  S
O935        C943   1.274       .  A
O935      Co2091   2.003   1_455  S
O936        C944   1.257       .  A
O936      Co2092   1.955       .  S
O937        C945   1.274       .  A
O937       Co957   2.025       .  S
O938        C946   1.315       .  A
O938       Co958   2.073       .  S
O939        C945   1.255       .  A
O939       Co956   1.921       .  S
O940        C946   1.295       .  A
O940       Co955   1.997       .  S
O941        C944   1.261       .  A
O941       Co958   1.973       .  S
O942        C943   1.262       .  A
O942       Co957   1.965       .  S
C943       C1041   1.478       .  S
C944       C1113   1.464       .  S
C945       C1005   1.465       .  S
O947        C960   1.237       .  A
O947       Co955   2.046       .  S
O948        C961   1.265       .  A
O948       Co956   2.025       .  S
O949        C962   1.259       .  A
O949       Co957   1.930       .  S
O950        C963   1.290       .  A
O950       Co958   2.046       .  S
O951        C963   1.275       .  A
O951      Co2092   1.982       .  S
O952       C2098   1.274       .  A
O952       Co955   2.009       .  S
O953        C960   1.215       .  A
O953       Co958   1.940       .  S
O954        C961   1.254       .  A
O954       Co957   1.957       .  S
Co955      O2071   2.003       .  S
Co955       O959   2.144       .  S
Co956      O2072   1.955   1_455  S
Co956      O2087   1.982   1_455  S
Co956      O2095   2.070       .  S
Co957      O2095   2.040       .  S
Co958       O959   1.992       .  S
O959      Co2092   2.070       .  S
O959      Co2093   2.040       .  S
C960        C996   1.442       .  S
C962       O2088   1.274       .  A
C962       C1128   1.465       .  S
C963       C1056   1.491       .  S
O964        C972   1.269       .  A
O965        C973   1.255       .  A
O966        C974   1.270       .  A
O966       Co986   1.963       .  S
O967        C975   1.272       .  A
O967       Co987   2.020       .  S
O968        C974   1.294       .  A
O968       Co985   2.037   1_565  S
O969        C975   1.250       .  A
O969       Co984   1.920       .  S
O970        C973   1.246       .  A
O970       Co987   2.039       .  S
O971        C972   1.274       .  A
O971       Co986   2.017       .  S
C973       C1104   1.472       .  S
C974       C1017   1.465       .  S
C975        C993   1.458       .  S
O976        C989   1.277       .  A
O976       Co984   2.024       .  S
O977        C990   1.231       .  A
O977       Co985   1.986   1_565  S
O978        C991   1.242       .  A
O978       Co986   1.920       .  S
O979        C992   1.286       .  A
O979       Co987   2.006       .  S
O980        C992   1.282       .  A
O981        C991   1.255       .  A
O982        C989   1.265       .  A
O982       Co987   1.965       .  S
O983        C990   1.238       .  A
O983       Co986   1.953       .  S
Co985       O988   2.050   1_545  S
Co986       O988   2.040       .  S
C989       C1032   1.477       .  S
C990       C1008   1.447       .  S
C991       C1092   1.472       .  S
C993        C994   1.397       .  A
C993        C998   1.415       .  A
C994        C995   1.397       .  A
C994        H999   1.084       .  S
C995        C996   1.408       .  A
C995       O1000   1.372       .  S
C996        C997   1.390       .  A
C997        C998   1.385       .  A
C997       H1001   1.085       .  S
C998       O1002   1.374       .  S
O1000      H1004   0.992       .  S
O1002      H1003   0.991       .  S
C1005      C1006   1.408       .  A
C1005      C1010   1.405       .  A
C1006      C1007   1.385       .  A
C1006      H1011   1.084       .  S
C1007      C1008   1.395       .  A
C1007      O1012   1.372       .  S
C1008      C1009   1.405       .  A
C1009      C1010   1.401       .  A
C1009      H1013   1.083       .  S
C1010      O1014   1.373       .  S
O1012      H1016   0.994       .  S
O1014      H1015   0.990       .  S
C1017      C1018   1.409       .  A
C1017      C1022   1.406       .  A
C1018      C1019   1.391       .  A
C1018      H1023   1.084       .  S
C1019      C1020   1.399       .  A
C1019      O1024   1.373       .  S
C1020      C1021   1.400       .  A
C1021      C1022   1.386       .  A
C1021      H1025   1.084       .  S
C1022      O1026   1.370       .  S
O1024      H1028   0.992       .  S
O1026      H1027   0.992       .  S
C1029      C1030   1.402       .  A
C1029      C1034   1.416       .  A
C1030      C1031   1.400       .  A
C1030      H1035   1.085       .  S
C1031      C1032   1.410       .  A
C1031      O1036   1.372       .  S
C1032      C1033   1.400       .  A
C1033      C1034   1.402       .  A
C1033      H1037   1.080       .  S
C1034      O1038   1.372       .  S
O1036      H1040   0.991       .  S
O1038      H1039   0.992       .  S
C1041      C1042   1.405       .  A
C1041      C1046   1.413       .  A
C1042      C1043   1.408       .  A
C1042      H1047   1.084       .  S
C1043      C1044   1.414       .  A
C1043      O1048   1.370       .  S
C1044      C1045   1.401       .  A
C1045      C1046   1.404       .  A
C1045      H1049   1.083       .  S
C1046      O1050   1.370       .  S
O1048      H1052   0.991       .  S
O1050      H1051   0.993       .  S
C1053      C1054   1.409       .  A
C1053      C1058   1.409       .  A
C1054      C1055   1.405       .  A
C1054      H1059   1.079       .  S
C1055      C1056   1.406       .  A
C1055      O1060   1.372       .  S
C1056      C1057   1.408       .  A
C1057      C1058   1.408       .  A
C1057      H1061   1.083       .  S
C1058      O1062   1.372       .  S
O1060      H1064   0.992       .  S
O1062      H1063   0.992       .  S
C1065      C1066   1.399       .  A
C1065      C1070   1.416       .  A
C1066      C1067   1.392       .  A
C1066      H1071   1.084       .  S
C1067      C1068   1.417       .  A
C1067      O1072   1.372       .  S
C1068      C1069   1.395       .  A
C1069      C1070   1.390       .  A
C1069      H1073   1.082       .  S
C1070      O1074   1.371       .  S
O1072      H1076   0.993       .  S
O1074      H1075   0.990       .  S
C1077      C1078   1.415       .  A
C1077      C1082   1.402       .  A
C1078      C1079   1.390       .  A
C1078      H1083   1.085       .  S
C1079      C1080   1.393       .  A
C1079      O1084   1.372       .  S
C1080      C1081   1.408       .  A
C1081      C1082   1.404       .  A
C1081      H1085   1.084       .  S
O1084      H1088   0.992       .  S
O1086      H1087   0.991       .  S
C1089      C1090   1.411       .  A
C1089      C1094   1.403       .  A
C1090      C1091   1.398       .  A
C1091      C1092   1.405       .  A
C1092      C1093   1.408       .  A
C1093      C1094   1.387       .  A
C1093      H1097   1.083       .  S
C1094      O1098   1.373       .  S
O1096      H1100   0.992       .  S
O1098      H1099   0.991       .  S
C1101      C1102   1.404       .  A
C1102      C1103   1.401       .  A
C1102      H1107   1.083       .  S
C1103      C1104   1.408       .  A
C1103      O1108   1.375       .  S
C1105      C1106   1.402       .  A
C1105      H1109   1.082       .  S
C1106      O1110   1.371       .  S
O1108      H1112   0.991       .  S
O1110      H1111   0.994       .  S
C1113      C1114   1.412       .  A
C1113      C1118   1.400       .  A
C1114      C1115   1.384       .  A
C1114      H1119   1.084       .  S
C1115      C1116   1.400       .  A
C1115      O1120   1.375       .  S
C1116      C1117   1.405       .  A
C1117      C1118   1.395       .  A
C1117      H2257   1.084       .  S
C1118      O2258   1.371       .  S
O1120      H1124   0.990       .  S
H1121      C2253   1.084       .  S
O1122      C2254   1.371       .  S
O1122      H1123   0.991       .  S
C1125      C2262   1.389       .  A
C1125      C1130   1.401   1_455  A
C1126      C2261   1.389       .  A
C1126      C1127   1.378       .  A
C1126      H1131   1.086       .  S
C1127      C2264   1.413       .  A
C1127      O1132   1.372       .  S
C1128      C2263   1.413       .  A
C1128      C1129   1.408       .  A
C1129      C1130   1.400   1_455  A
C1129      H1133   1.083   1_455  S
C1130      O1134   1.371       .  S
O1132      H1136   0.992       .  S
O1134      H1135   0.993       .  S
C1137      C1138   1.523       .  S
C1137      C1143   1.530       .  S
C1137      C1141   1.531       .  S
C1137      C1256   1.528       .  S
C1138      H1145   1.087       .  S
C1138      C1139   1.368       .  D
C1139      C1140   1.578       .  S
C1139      C1198   1.509       .  S
C1140      C1144   1.599       .  S
C1140      C1142   1.580       .  S
C1140      H1146   1.110       .  S
C1141      H1147   1.087       .  S
C1141      C1142   1.359       .  D
C1142      C1172   1.518       .  S
C1143      H1148   1.087       .  S
C1143      C1144   1.373       .  D
C1144      C1230   1.527       .  S
C1149      C1150   1.541       .  S
C1149      C1155   1.526       .  S
C1149      C1153   1.535       .  S
C1149      C1276   1.523       .  S
C1150      H1157   1.083       .  S
C1150      C1151   1.377       .  D
C1151      C1152   1.557       .  S
C1151      C1245   1.499       .  S
C1152      C1156   1.581       .  S
C1152      C1154   1.566       .  S
C1152      H1158   1.110       .  S
C1153      H1159   1.087       .  S
C1153      C1154   1.356       .  D
C1154      C1187   1.497       .  S
C1155      H1160   1.080       .  S
C1155      C1156   1.363       .  D
C1156      C1218   1.518       .  S
O1161      C1169   1.272       .  A
O1162      C1170   1.260       .  A
O1163      C1455   1.277       .  A
O1163     Co1751   2.024       .  S
O1164      C1172   1.275       .  A
O1164     Co1468   2.064       .  S
O1165      C1171   1.254       .  A
O1165     Co1182   1.921       .  S
O1166      C1172   1.255       .  A
O1166     Co1749   1.983       .  S
O1167      C1170   1.273       .  A
O1167     Co1184   2.012   1_554  S
O1168      C1169   1.247       .  A
O1168     Co1751   1.874       .  S
C1169      C1373   1.457       .  S
C1170      C1400   1.445       .  S
C1171      O1447   1.277       .  A
C1171      C1364   1.459       .  S
O1173      C1186   1.289       .  A
O1173     Co1181   2.051       .  S
O1174      C1187   1.294       .  A
O1174     Co1750   2.104   1_545  S
O1175      C1188   1.245       .  A
O1175     Co1183   1.969       .  S
O1176      C1757   1.272       .  A
O1176     Co1184   2.006   1_554  S
O1177      C1757   1.261       .  A
O1178     Co1181   1.986       .  S
O1179      C1186   1.273   1_565  A
O1179     Co2036   1.888       .  S
O1180      C1187   1.248       .  A
O1180     Co1467   1.928       .  S
Co1181     O1734   1.993   1_545  S
Co1181     O1753   2.076   1_545  S
Co1182     O1742   2.074       .  S
Co1183     O1731   2.066   1_545  S
Co1183     O1736   1.990   1_545  S
Co1183     O1464   1.928       .  S
Co1184     O1448   2.064       .  S
Co1184     O2031   1.879       .  S
Co1184     O1469   1.969       .  S
O1185     Co1749   2.097       .  S
O1185     Co1468   1.970       .  S
C1186      C1349   1.471       .  S
C1188      C1409   1.454       .  S
C1189      O1744   1.275       .  A
C1189      O1745   1.257       .  A
C1189      C1385   1.488       .  S
O1190      C1198   1.262       .  A
O1190     Co1210   2.021       .  S
O1191      C1199   1.233       .  A
O1191     Co1211   1.942       .  S
O1192      C1200   1.265       .  A
O1192     Co1496   1.962   1_554  S
O1193      C1201   1.255       .  A
O1193     Co1497   1.942       .  S
O1194      C1200   1.279       .  A
O1194     Co1211   2.010       .  S
O1195      C1201   1.276       .  A
O1195     Co1210   2.009       .  S
O1196      C1199   1.262       .  A
O1196     Co1213   2.062   1_554  S
O1197      C1198   1.259       .  A
O1197     Co1212   1.989       .  S
C1199      C1337   1.479       .  S
C1200      C1304   1.444       .  S
C1201      C1352   1.471       .  S
O1202      C1215   1.270       .  A
O1202     Co1210   1.994       .  S
O1203      C1216   1.267       .  A
O1203     Co1211   2.033       .  S
O1204      C1217   1.265       .  A
O1204     Co1212   1.972       .  S
O1205      C1218   1.275       .  A
O1205     Co1213   2.051   1_554  S
O1206      C1218   1.280       .  A
O1206     Co1211   1.999       .  S
O1207      C1217   1.281       .  A
O1207     Co1210   2.040       .  S
O1208      C1215   1.260       .  A
O1208     Co1497   1.954       .  S
O1209      C1500   1.240       .  A
O1209     Co1212   1.934       .  S
Co1210     O1214   2.093       .  S
Co1211     O1498   2.007   1_554  S
Co1212     O1476   1.962       .  S
Co1212     O1214   2.061       .  S
Co1213     O1477   1.942       .  S
Co1213     O1492   1.954       .  S
Co1213     O1498   2.128       .  S
O1214     Co1495   2.007       .  S
O1214     Co1497   2.128       .  S
C1215      C1313   1.478       .  S
C1216      O1493   1.240       .  A
C1216      C1361   1.475       .  S
C1217      C1328   1.492       .  S
O1219      C1227   1.273       .  A
O1220      C1228   1.257       .  A
O1221      C1229   1.275       .  A
O1221     Co1241   2.027       .  S
O1222      C1230   1.315       .  A
O1222     Co1242   2.070       .  S
O1223      C1229   1.254       .  A
O1223     Co1240   1.919       .  S
O1224      C1230   1.295       .  A
O1224     Co1239   2.000       .  S
O1225      C1228   1.261       .  A
O1225     Co1242   1.977       .  S
O1226      C1227   1.263       .  A
O1226     Co1241   1.970       .  S
C1227      C1325   1.478       .  S
C1228      C1397   1.468       .  S
C1229      C1289   1.468       .  S
O1231      C1244   1.235       .  A
O1231     Co1239   2.040       .  S
O1232      C1245   1.264       .  A
O1232     Co1240   2.029       .  S
O1233      C1246   1.260       .  A
O1233     Co1241   1.936       .  S
O1234      C1247   1.290       .  A
O1234     Co1242   2.047       .  S
O1235      C1247   1.274       .  A
O1236     Co1239   2.020   1_455  S
O1237      C1244   1.214       .  A
O1237     Co1242   1.938       .  S
O1238      C1245   1.256       .  A
O1238     Co1241   1.965       .  S
Co1239     O1243   2.148   1_655  S
Co1242     O1243   1.993   1_655  S
C1244      C1280   1.439       .  S
C1246      C1412   1.475       .  S
C1247      C1340   1.486       .  S
O1248      C1256   1.268       .  A
O1248     Co1836   1.970       .  S
O1249      C1257   1.256       .  A
O1249     Co1837   1.996       .  S
O1250      C1258   1.268       .  A
O1250     Co1270   1.950       .  S
O1251      C1259   1.271       .  A
O1251     Co1271   2.016       .  S
O1252      C1258   1.295       .  A
O1252     Co1269   2.042       .  S
O1253      C1259   1.251       .  A
O1253     Co1268   1.924       .  S
O1254      C1257   1.248       .  A
O1254     Co1271   2.046       .  S
O1255      C1256   1.276       .  A
O1255     Co1270   2.028       .  S
C1257      C1388   1.478       .  S
C1258      C1301   1.464       .  S
C1259      C1277   1.457       .  S
O1260      C1273   1.276       .  A
O1260     Co1268   2.020       .  S
O1261      C1274   1.231       .  A
O1261     Co1269   1.984       .  S
O1262      C1275   1.237       .  A
O1262     Co1270   1.906       .  S
O1263      C1276   1.285       .  A
O1263     Co1271   2.004       .  S
O1264      C1276   1.281       .  A
O1264     Co1837   1.972       .  S
O1265      C1275   1.254       .  A
O1265     Co1836   1.989       .  S
O1266      C1273   1.265       .  A
O1266     Co1271   1.965       .  S
O1267      C1274   1.239       .  A
O1267     Co1270   1.954       .  S
Co1268     O1816   1.969   1_545  S
Co1268     O1833   1.998   1_545  S
Co1268     O1840   2.055   1_545  S
Co1269     O1817   1.991       .  S
Co1269     O1832   1.983       .  S
Co1269     O1272   2.052       .  S
Co1270     O1272   2.042       .  S
Co1271     O1840   2.091   1_545  S
O1272     Co1836   2.055       .  S
O1272     Co1839   2.090       .  S
C1273      C1316   1.474       .  S
C1274      C1292   1.447       .  S
C1275      C1376   1.457       .  S
C1277      C1278   1.397       .  A
C1277      C1282   1.415       .  A
C1278      C1279   1.396       .  A
C1278      H1283   1.084       .  S
C1279      C1280   1.408       .  A
C1279      O1284   1.373       .  S
C1280      C1281   1.390       .  A
C1281      C1282   1.385       .  A
C1281      H1285   1.085       .  S
C1282      O1286   1.374       .  S
O1284      H1288   0.992       .  S
O1286      H1287   0.992       .  S
C1289      C1290   1.409       .  A
C1289      C1294   1.405       .  A
C1290      C1291   1.386       .  A
C1290      H1295   1.084       .  S
C1291      C1292   1.396       .  A
C1291      O1296   1.372       .  S
C1292      C1293   1.404       .  A
C1293      C1294   1.400       .  A
C1293      H1297   1.083       .  S
C1294      O1298   1.374       .  S
O1296      H1300   0.995       .  S
O1298      H1299   0.990       .  S
C1301      C1302   1.411       .  A
C1301      C1306   1.403       .  A
C1302      C1303   1.391       .  A
C1302      H1307   1.084       .  S
C1303      C1304   1.399       .  A
C1303      O1308   1.373       .  S
C1304      C1305   1.400       .  A
C1305      C1306   1.385       .  A
C1305      H1309   1.084       .  S
C1306      O1310   1.370       .  S
O1308      H1312   0.992       .  S
O1310      H1311   0.992       .  S
C1313      C1314   1.402       .  A
C1313      C1318   1.417       .  A
C1314      C1315   1.400       .  A
C1314      H1319   1.085       .  S
C1315      C1316   1.409       .  A
C1315      O1320   1.372       .  S
C1316      C1317   1.401       .  A
C1317      C1318   1.402       .  A
C1317      H1321   1.081       .  S
C1318      O1322   1.372       .  S
O1320      H1324   0.991       .  S
O1322      H1323   0.992       .  S
C1325      C1326   1.405       .  A
C1325      C1330   1.411       .  A
C1326      C1327   1.408       .  A
C1326      H1331   1.084       .  S
C1327      C1328   1.414       .  A
C1327      O1332   1.371       .  S
C1328      C1329   1.402       .  A
C1329      C1330   1.404       .  A
C1329      H1333   1.083       .  S
C1330      O1334   1.370       .  S
O1332      H1336   0.991       .  S
O1334      H1335   0.991       .  S
C1337      C1338   1.410       .  A
C1337      C1342   1.408       .  A
C1338      C1339   1.404       .  A
C1338      H1343   1.078       .  S
C1339      C1340   1.404       .  A
C1339      O1344   1.372       .  S
C1340      C1341   1.407       .  A
C1341      C1342   1.406       .  A
C1341      H1345   1.084       .  S
C1342      O1346   1.372       .  S
O1344      H1348   0.991       .  S
O1346      H1347   0.993       .  S
C1349      C1350   1.397       .  A
C1349      C1354   1.418       .  A
C1350      C1351   1.392       .  A
C1350      H1355   1.084       .  S
C1351      C1352   1.418       .  A
C1351      O1356   1.372       .  S
C1352      C1353   1.395       .  A
C1353      C1354   1.390       .  A
C1353      H1357   1.082       .  S
C1354      O1358   1.371       .  S
O1356      H1360   0.992       .  S
O1358      H1359   0.992       .  S
C1361      C1362   1.418       .  A
C1361      C1366   1.399       .  A
C1362      C1363   1.386       .  A
C1362      H1367   1.084       .  S
C1363      C1364   1.394       .  A
C1363      O1368   1.377       .  S
C1364      C1365   1.412       .  A
C1365      C1366   1.401       .  A
C1365      H1369   1.084       .  S
C1366      O1654   1.370       .  S
O1368      H1372   0.992       .  S
O1370      C1650   1.370       .  S
O1370      H1371   0.991       .  S
C1373      C1374   1.410       .  A
C1373      C1378   1.398       .  A
C1374      C1375   1.384       .  A
C1374      H1947   1.081       .  S
C1375      C1376   1.399       .  A
C1375      O1948   1.371       .  S
C1376      C1377   1.410       .  A
C1377      C1378   1.386       .  A
C1377      H1381   1.083       .  S
C1378      O1382   1.372       .  S
H1379      C1942   1.083       .  S
O1380      C1943   1.371       .  S
O1380      H1384   0.992       .  S
O1382      H1383   0.990       .  S
C1385      C1386   1.403       .  A
C1385      C1958   1.419       .  A
C1386      C1387   1.405       .  A
C1386      H1391   1.083       .  S
C1387      C1388   1.410       .  A
C1387      O1392   1.376       .  S
C1388      C1957   1.398       .  A
C1389      C1956   1.398       .  A
C1389      C1390   1.401       .  A
C1389      H1393   1.080       .  S
C1390      C1953   1.417       .  A
C1390      O1394   1.371       .  S
O1392      H1396   0.991       .  S
O1394      H1395   0.994       .  S
C1397      C1398   1.412       .  A
C1397      C1402   1.401       .  A
C1398      C1399   1.385       .  A
C1398      H1403   1.084       .  S
C1399      C1400   1.400       .  A
C1399      O1404   1.376       .  S
C1400      C1401   1.406       .  A
C1401      C1402   1.396       .  A
O1404      H1408   0.990       .  S
O1406      H1407   0.991       .  S
C1409      C1414   1.405       .  A
C1410      C1411   1.385       .  A
C1410      H1415   1.085       .  S
C1411      O1416   1.371       .  S
C1412      C1413   1.407       .  A
C1413      C1414   1.404       .  A
C1413      H1417   1.083       .  S
C1414      O1418   1.371       .  S
O1416      H1420   0.993       .  S
O1418      H1419   0.994       .  S
C1421      C1422   1.523       .  S
C1421      C1427   1.530       .  S
C1421      C1425   1.531       .  S
C1421      C1540   1.528       .  S
C1422      H1429   1.087       .  S
C1422      C1423   1.368       .  D
C1423      C1424   1.578       .  S
C1423      C1482   1.509       .  S
C1424      C1428   1.599       .  S
C1424      C1426   1.580       .  S
C1424      H1430   1.110       .  S
C1425      H1431   1.087       .  S
C1425      C1426   1.359       .  D
C1426      C1456   1.518       .  S
C1427      H1432   1.087       .  S
C1427      C1428   1.373       .  D
C1428      C1514   1.527       .  S
C1433      C1434   1.541       .  S
C1433      C1439   1.526       .  S
C1433      C1437   1.535       .  S
C1433      C1560   1.523       .  S
C1434      H1441   1.083       .  S
C1434      C1435   1.377       .  D
C1435      C1436   1.557       .  S
C1435      C1529   1.499       .  S
C1436      C1440   1.581       .  S
C1436      C1438   1.566       .  S
C1436      H1442   1.110       .  S
C1437      H1443   1.087       .  S
C1437      C1438   1.356       .  D
C1438      C1471   1.497       .  S
C1439      H1444   1.080       .  S
C1439      C1440   1.363       .  D
C1440      C1502   1.518       .  S
O1445      C1453   1.272       .  A
O1446      C1454   1.260       .  A
O1447     Co2035   2.024       .  S
O1448      C1456   1.275       .  A
O1449      C1455   1.254       .  A
O1449     Co1466   1.921       .  S
O1450      C1456   1.255       .  A
O1450     Co2033   1.983       .  S
O1451      C1454   1.273       .  A
O1451     Co1468   2.012       .  S
O1452      C1453   1.247       .  A
O1452     Co2035   1.874   1_556  S
C1453      C1657   1.457       .  S
C1454      C1684   1.445       .  S
C1455      C1648   1.459       .  S
O1457      C1470   1.289       .  A
O1457     Co1465   2.051       .  S
O1458      C1471   1.294       .  A
O1458     Co2034   2.104   1_545  S
O1459      C1472   1.245       .  A
O1459     Co1467   1.969   1_556  S
O1460      C2041   1.272       .  A
O1460     Co1468   2.006       .  S
O1461      C2041   1.261       .  A
O1462     Co1465   1.986       .  S
O1463      C1470   1.273   1_565  A
O1463     Co1752   1.888       .  S
O1464      C1471   1.248       .  A
Co1465     O2018   1.993   1_545  S
Co1465     O2037   2.076   1_545  S
Co1466     O2026   2.074       .  S
Co1467     O2015   2.066   1_545  S
Co1467     O2020   1.990   1_544  S
Co1468     O1747   1.879       .  S
O1469     Co2033   2.097       .  S
C1470      C1633   1.471       .  S
C1472      C1693   1.454       .  S
C1473      O2028   1.275       .  A
C1473      O2029   1.257       .  A
C1473      C1669   1.488       .  S
O1474      C1482   1.262       .  A
O1474     Co1494   2.021       .  S
O1475      C1483   1.233       .  A
O1475     Co1495   1.942       .  S
O1476      C1484   1.265       .  A
O1477      C1485   1.255       .  A
O1478      C1484   1.279       .  A
O1478     Co1495   2.010       .  S
O1479      C1485   1.276       .  A
O1479     Co1494   2.009       .  S
O1480      C1483   1.262       .  A
O1480     Co1497   2.062       .  S
O1481      C1482   1.259       .  A
O1481     Co1496   1.988       .  S
C1483      C1621   1.479       .  S
C1484      C1588   1.444       .  S
C1485      C1636   1.471       .  S
O1486      C1499   1.270       .  A
O1486     Co1494   1.994       .  S
O1487      C1500   1.267       .  A
O1487     Co1495   2.033       .  S
O1488      C1501   1.265       .  A
O1488     Co1496   1.972       .  S
O1489      C1502   1.275       .  A
O1489     Co1497   2.051       .  S
O1490      C1502   1.280       .  A
O1490     Co1495   1.999       .  S
O1491      C1501   1.281       .  A
O1491     Co1494   2.040       .  S
O1492      C1499   1.260       .  A
O1493     Co1496   1.934   1_554  S
Co1494     O1498   2.093       .  S
Co1496     O1498   2.061       .  S
C1499      C1597   1.478       .  S
C1500      C1645   1.475       .  S
C1501      C1612   1.492       .  S
O1503      C1511   1.273       .  A
O1504      C1512   1.257       .  A
O1505      C1513   1.275       .  A
O1505     Co1525   2.027       .  S
O1506      C1514   1.315       .  A
O1506     Co1526   2.070       .  S
O1507      C1513   1.254       .  A
O1507     Co1524   1.919       .  S
O1508      C1514   1.295       .  A
O1508     Co1523   2.000       .  S
O1509      C1512   1.261       .  A
O1509     Co1526   1.977       .  S
O1510      C1511   1.263       .  A
O1510     Co1525   1.970       .  S
C1511      C1609   1.478       .  S
C1512      C1681   1.468       .  S
C1513      C1573   1.468       .  S
O1515      C1528   1.235       .  A
O1515     Co1523   2.040       .  S
O1516      C1529   1.264       .  A
O1516     Co1524   2.029       .  S
O1517      C1530   1.260       .  A
O1517     Co1525   1.936       .  S
O1518      C1531   1.290       .  A
O1518     Co1526   2.047       .  S
O1519      C1531   1.274       .  A
O1520     Co1523   2.020   1_455  S
O1521      C1528   1.214       .  A
O1521     Co1526   1.938       .  S
O1522      C1529   1.256       .  A
O1522     Co1525   1.965       .  S
Co1523     O1527   2.148   1_655  S
Co1526     O1527   1.993   1_655  S
C1528      C1564   1.439       .  S
C1530      C1696   1.475       .  S
C1531      C1624   1.486       .  S
O1532      C1540   1.268       .  A
O1532     Co2120   1.970       .  S
O1533      C1541   1.256       .  A
O1533     Co2121   1.996       .  S
O1534      C1542   1.268       .  A
O1534     Co1554   1.950       .  S
O1535      C1543   1.271       .  A
O1535     Co1555   2.016       .  S
O1536      C1542   1.295       .  A
O1536     Co1553   2.042       .  S
O1537      C1543   1.251       .  A
O1537     Co1552   1.924       .  S
O1538      C1541   1.248       .  A
O1538     Co1555   2.046       .  S
O1539      C1540   1.276       .  A
O1539     Co1554   2.028       .  S
C1541      C1672   1.478       .  S
C1542      C1585   1.464       .  S
C1543      C1561   1.457       .  S
O1544      C1557   1.276       .  A
O1544     Co1552   2.020       .  S
O1545      C1558   1.231       .  A
O1545     Co1553   1.984       .  S
O1546      C1559   1.237       .  A
O1546     Co1554   1.906       .  S
O1547      C1560   1.285       .  A
O1547     Co1555   2.004       .  S
O1548      C1560   1.281       .  A
O1548     Co2121   1.972       .  S
O1549      C1559   1.254       .  A
O1549     Co2120   1.989       .  S
O1550      C1557   1.265       .  A
O1550     Co1555   1.966       .  S
O1551      C1558   1.239       .  A
O1551     Co1554   1.954       .  S
Co1552     O2100   1.969   1_545  S
Co1552     O2117   1.998   1_545  S
Co1552     O2124   2.055   1_545  S
Co1553     O2101   1.991       .  S
Co1553     O2116   1.984       .  S
Co1553     O1556   2.052       .  S
Co1554     O1556   2.042       .  S
Co1555     O2124   2.091   1_545  S
O1556     Co2120   2.055       .  S
O1556     Co2123   2.090       .  S
C1557      C1600   1.474       .  S
C1558      C1576   1.447       .  S
C1559      C1660   1.457       .  S
C1561      C1562   1.397       .  A
C1561      C1566   1.415       .  A
C1562      C1563   1.396       .  A
C1562      H1567   1.084       .  S
C1563      C1564   1.408       .  A
C1563      O1568   1.373       .  S
C1564      C1565   1.390       .  A
C1565      C1566   1.385       .  A
C1565      H1569   1.085       .  S
C1566      O1570   1.374       .  S
O1568      H1572   0.992       .  S
O1570      H1571   0.992       .  S
C1573      C1574   1.409       .  A
C1573      C1578   1.405       .  A
C1574      C1575   1.386       .  A
C1574      H1579   1.084       .  S
C1575      C1576   1.396       .  A
C1575      O1580   1.372       .  S
C1576      C1577   1.404       .  A
C1577      C1578   1.400       .  A
C1577      H1581   1.083       .  S
C1578      O1582   1.373       .  S
O1580      H1584   0.995       .  S
O1582      H1583   0.990       .  S
C1585      C1586   1.411       .  A
C1585      C1590   1.403       .  A
C1586      C1587   1.391       .  A
C1586      H1591   1.084       .  S
C1587      C1588   1.399       .  A
C1587      O1592   1.373       .  S
C1588      C1589   1.401       .  A
C1589      C1590   1.385       .  A
C1589      H1593   1.084       .  S
C1590      O1594   1.370       .  S
O1592      H1596   0.992       .  S
O1594      H1595   0.992       .  S
C1597      C1598   1.402       .  A
C1597      C1602   1.417       .  A
C1598      C1599   1.400       .  A
C1598      H1603   1.085       .  S
C1599      C1600   1.409       .  A
C1599      O1604   1.372       .  S
C1600      C1601   1.401       .  A
C1601      C1602   1.402       .  A
C1601      H1605   1.081       .  S
C1602      O1606   1.372       .  S
O1604      H1608   0.991       .  S
O1606      H1607   0.992       .  S
C1609      C1610   1.405       .  A
C1609      C1614   1.411       .  A
C1610      C1611   1.408       .  A
C1610      H1615   1.084       .  S
C1611      C1612   1.414       .  A
C1611      O1616   1.371       .  S
C1612      C1613   1.402       .  A
C1613      C1614   1.404       .  A
C1613      H1617   1.083       .  S
C1614      O1618   1.370       .  S
O1616      H1620   0.991       .  S
O1618      H1619   0.992       .  S
C1621      C1622   1.410       .  A
C1621      C1626   1.408       .  A
C1622      C1623   1.404       .  A
C1622      H1627   1.078       .  S
C1623      C1624   1.404       .  A
C1623      O1628   1.372       .  S
C1624      C1625   1.407       .  A
C1625      C1626   1.406       .  A
C1625      H1629   1.084       .  S
C1626      O1630   1.372       .  S
O1628      H1632   0.991       .  S
O1630      H1631   0.993       .  S
C1633      C1634   1.397       .  A
C1633      C1638   1.418       .  A
C1634      C1635   1.393       .  A
C1634      H1639   1.084       .  S
C1635      C1636   1.418       .  A
C1635      O1640   1.372       .  S
C1636      C1637   1.395       .  A
C1637      C1638   1.390       .  A
C1637      H1641   1.082       .  S
C1638      O1642   1.371       .  S
O1640      H1644   0.992       .  S
O1642      H1643   0.992       .  S
C1645      C1646   1.418       .  A
C1645      C1650   1.399       .  A
C1646      C1647   1.386       .  A
C1646      H1651   1.084       .  S
C1647      C1648   1.394       .  A
C1647      O1652   1.377       .  S
C1648      C1649   1.412       .  A
C1649      C1650   1.401       .  A
C1649      H1653   1.084       .  S
O1652      H1656   0.992       .  S
O1654      H1655   0.991       .  S
C1657      C1658   1.410       .  A
C1657      C1662   1.398       .  A
C1658      C1659   1.384       .  A
C1658      H2231   1.081       .  S
C1659      C1660   1.399       .  A
C1659      O2232   1.371       .  S
C1660      C1661   1.410       .  A
C1661      C1662   1.386       .  A
C1661      H1665   1.083       .  S
C1662      O1666   1.372       .  S
H1663      C2226   1.083       .  S
O1664      C2227   1.371       .  S
O1664      H1668   0.992       .  S
O1666      H1667   0.990       .  S
C1669      C1670   1.403       .  A
C1669      C2242   1.419       .  A
C1670      C1671   1.405       .  A
C1670      H1675   1.083       .  S
C1671      C1672   1.410       .  A
C1671      O1676   1.376       .  S
C1672      C2241   1.398       .  A
C1673      C2240   1.398       .  A
C1673      C1674   1.401       .  A
C1673      H1677   1.080       .  S
C1674      C2237   1.417       .  A
C1674      O1678   1.371       .  S
O1676      H1680   0.991       .  S
O1678      H1679   0.994       .  S
C1681      C1682   1.412       .  A
C1681      C1686   1.401       .  A
C1682      C1683   1.385       .  A
C1682      H1687   1.084       .  S
C1683      C1684   1.400       .  A
C1683      O1688   1.376       .  S
C1684      C1685   1.406       .  A
C1685      C1686   1.396       .  A
O1688      H1692   0.990       .  S
O1690      H1691   0.991       .  S
C1693      C1698   1.405       .  A
C1694      C1695   1.385       .  A
C1694      H1699   1.085       .  S
C1695      O1700   1.371       .  S
C1696      C1697   1.407       .  A
C1697      C1698   1.404       .  A
C1697      H1701   1.083       .  S
C1698      O1702   1.371       .  S
O1700      H1704   0.993       .  S
O1702      H1703   0.994       .  S
C1705      C1706   1.521       .  S
C1705      C1711   1.531       .  S
C1705      C1709   1.526       .  S
C1705      C1824   1.523       .  S
C1706      H1713   1.088       .  S
C1706      C1707   1.366       .  D
C1707      C1708   1.583       .  S
C1707      C1766   1.515       .  S
C1708      C1712   1.599       .  S
C1708      C1710   1.578       .  S
C1708      H1714   1.110       .  S
C1709      H1715   1.087       .  S
C1709      C1710   1.357       .  D
C1710      C1740   1.512       .  S
C1711      H1716   1.086       .  S
C1711      C1712   1.374       .  D
C1712      C1798   1.526       .  S
C1717      C1718   1.543       .  S
C1717      C1723   1.526       .  S
C1717      C1721   1.540       .  S
C1717      C1844   1.530       .  S
C1718      H1725   1.082       .  S
C1718      C1719   1.378       .  D
C1719      C1720   1.549       .  S
C1719      C1813   1.493       .  S
C1720      C1724   1.591       .  S
C1720      C1722   1.570       .  S
C1720      H1726   1.110       .  S
C1721      H1727   1.087       .  S
C1721      C1722   1.364       .  D
C1722      C1755   1.516       .  S
C1723      H1728   1.082       .  S
C1723      C1724   1.363       .  D
C1724      C1786   1.532       .  S
O1729      C1737   1.276       .  A
O1730      C1738   1.262       .  A
O1731      C2023   1.292       .  A
O1732      C1740   1.275       .  A
O1732     Co2036   2.050       .  S
O1733      C1739   1.251       .  A
O1733     Co1750   1.931       .  S
O1734      C1740   1.263       .  A
O1735      C1738   1.270       .  A
O1735     Co1752   1.998   1_554  S
O1736      C1737   1.283       .  A
C1737      C1941   1.471       .  S
C1738      C1968   1.447       .  S
C1739      O2015   1.292       .  A
C1739      C1932   1.458       .  S
O1741      C1754   1.294       .  A
O1741     Co1749   2.067       .  S
O1742      C1755   1.279       .  A
O1743      C1756   1.243       .  A
O1743     Co1751   1.924       .  S
O1744     Co1752   2.024   1_544  S
O1746     Co1749   1.989       .  S
O1747      C1754   1.273       .  A
O1748      C1755   1.246       .  A
O1748     Co2035   1.977       .  S
Co1751     O2032   1.977       .  S
Co1752     O2016   2.050       .  S
Co1752     O2037   1.968       .  S
O1753     Co2036   1.968       .  S
C1754      C1917   1.471       .  S
C1756      C1977   1.439       .  S
C1757      C1953   1.484       .  S
O1758      C1766   1.262       .  A
O1758     Co1778   2.024       .  S
O1759      C1767   1.232       .  A
O1759     Co1779   1.944       .  S
O1760      C1768   1.263       .  A
O1760     Co2064   1.962   1_554  S
O1761      C1769   1.256       .  A
O1761     Co2065   1.945       .  S
O1762      C1768   1.276       .  A
O1762     Co1779   2.000       .  S
O1763      C1769   1.277       .  A
O1763     Co1778   2.007       .  S
O1764      C1767   1.265       .  A
O1764     Co1781   2.075   1_554  S
O1765      C1766   1.262       .  A
O1765     Co1780   1.996       .  S
C1767      C1905   1.481       .  S
C1768      C1872   1.447       .  S
C1769      C1920   1.470       .  S
O1770      C1783   1.271       .  A
O1770     Co1778   1.995       .  S
O1771      C1784   1.270       .  A
O1771     Co1779   2.022       .  S
O1772      C1785   1.266       .  A
O1772     Co1780   1.967       .  S
O1773      C1786   1.275       .  A
O1773     Co1781   2.051   1_554  S
O1774      C1786   1.287       .  A
O1774     Co1779   2.021       .  S
O1775      C1785   1.283       .  A
O1775     Co1778   2.046       .  S
O1776      C1783   1.261       .  A
O1776     Co2065   1.955       .  S
O1777      C2068   1.250       .  A
O1777     Co1780   1.948       .  S
Co1778     O1782   2.087       .  S
Co1779     O2066   1.993   1_554  S
Co1780     O2044   1.962       .  S
Co1780     O1782   2.053       .  S
Co1781     O2045   1.945       .  S
Co1781     O2060   1.955       .  S
Co1781     O2066   2.129       .  S
O1782     Co2063   1.993       .  S
O1782     Co2065   2.129       .  S
C1783      C1881   1.478       .  S
C1784      O2061   1.250       .  A
C1784      C1929   1.475       .  S
C1785      C1896   1.493       .  S
O1787      C1795   1.274       .  A
O1788      C1796   1.257       .  A
O1789      C1797   1.274       .  A
O1789     Co1809   2.025       .  S
O1790      C1798   1.315       .  A
O1790     Co1810   2.073       .  S
O1791      C1797   1.255       .  A
O1791     Co1808   1.921       .  S
O1792      C1798   1.295       .  A
O1792     Co1807   1.997       .  S
O1793      C1796   1.261       .  A
O1793     Co1810   1.973       .  S
O1794      C1795   1.262       .  A
O1794     Co1809   1.965       .  S
C1795      C1893   1.479       .  S
C1796      C1965   1.464       .  S
C1797      C1857   1.465       .  S
O1799      C1812   1.237       .  A
O1799     Co1807   2.046       .  S
O1800      C1813   1.265       .  A
O1800     Co1808   2.026       .  S
O1801      C1814   1.259       .  A
O1801     Co1809   1.930       .  S
O1802      C1815   1.290       .  A
O1802     Co1810   2.046       .  S
O1803      C1815   1.275       .  A
O1804     Co1807   2.009   1_455  S
O1805      C1812   1.215       .  A
O1805     Co1810   1.940       .  S
O1806      C1813   1.254       .  A
O1806     Co1809   1.957       .  S
Co1807     O1811   2.144   1_655  S
Co1810     O1811   1.992   1_655  S
C1812      C1848   1.442       .  S
C1814      C1980   1.465       .  S
C1815      C1908   1.491       .  S
O1816      C1824   1.269       .  A
O1817      C1825   1.255       .  A
O1818      C1826   1.270       .  A
O1818     Co1838   1.963       .  S
O1819      C1827   1.272       .  A
O1819     Co1839   2.020       .  S
O1820      C1826   1.294       .  A
O1820     Co1837   2.036   1_565  S
O1821      C1827   1.250       .  A
O1821     Co1836   1.920       .  S
O1822      C1825   1.246       .  A
O1822     Co1839   2.039       .  S
O1823      C1824   1.274       .  A
O1823     Co1838   2.017       .  S
C1825      C1956   1.472       .  S
C1826      C1869   1.465       .  S
C1827      C1845   1.458       .  S
O1828      C1841   1.277       .  A
O1828     Co1836   2.024       .  S
O1829      C1842   1.231       .  A
O1829     Co1837   1.986   1_565  S
O1830      C1843   1.242       .  A
O1830     Co1838   1.920       .  S
O1831      C1844   1.286       .  A
O1831     Co1839   2.006       .  S
O1832      C1844   1.282       .  A
O1833      C1843   1.255       .  A
O1834      C1841   1.265       .  A
O1834     Co1839   1.965       .  S
O1835      C1842   1.238       .  A
O1835     Co1838   1.953       .  S
Co1837     O1840   2.050   1_545  S
Co1838     O1840   2.040       .  S
C1841      C1884   1.477       .  S
C1842      C1860   1.447       .  S
C1843      C1944   1.472       .  S
C1845      C1846   1.397       .  A
C1845      C1850   1.415       .  A
C1846      C1847   1.397       .  A
C1846      H1851   1.084       .  S
C1847      C1848   1.408       .  A
C1847      O1852   1.372       .  S
C1848      C1849   1.390       .  A
C1849      C1850   1.385       .  A
C1849      H1853   1.085       .  S
C1850      O1854   1.374       .  S
O1852      H1856   0.992       .  S
O1854      H1855   0.991       .  S
C1857      C1858   1.408       .  A
C1857      C1862   1.405       .  A
C1858      C1859   1.385       .  A
C1858      H1863   1.084       .  S
C1859      C1860   1.395       .  A
C1859      O1864   1.372       .  S
C1860      C1861   1.405       .  A
C1861      C1862   1.401       .  A
C1861      H1865   1.083       .  S
C1862      O1866   1.373       .  S
O1864      H1868   0.994       .  S
O1866      H1867   0.990       .  S
C1869      C1870   1.409       .  A
C1869      C1874   1.406       .  A
C1870      C1871   1.391       .  A
C1870      H1875   1.084       .  S
C1871      C1872   1.399       .  A
C1871      O1876   1.373       .  S
C1872      C1873   1.400       .  A
C1873      C1874   1.386       .  A
C1873      H1877   1.084       .  S
C1874      O1878   1.370       .  S
O1876      H1880   0.992       .  S
O1878      H1879   0.992       .  S
C1881      C1882   1.402       .  A
C1881      C1886   1.416       .  A
C1882      C1883   1.400       .  A
C1882      H1887   1.085       .  S
C1883      C1884   1.410       .  A
C1883      O1888   1.372       .  S
C1884      C1885   1.400       .  A
C1885      C1886   1.402       .  A
C1885      H1889   1.080       .  S
C1886      O1890   1.372       .  S
O1888      H1892   0.991       .  S
O1890      H1891   0.992       .  S
C1893      C1894   1.405       .  A
C1893      C1898   1.413       .  A
C1894      C1895   1.408       .  A
C1894      H1899   1.084       .  S
C1895      C1896   1.414       .  A
C1895      O1900   1.370       .  S
C1896      C1897   1.401       .  A
C1897      C1898   1.404       .  A
C1897      H1901   1.083       .  S
C1898      O1902   1.370       .  S
O1900      H1904   0.991       .  S
O1902      H1903   0.993       .  S
C1905      C1906   1.409       .  A
C1905      C1910   1.409       .  A
C1906      C1907   1.405       .  A
C1906      H1911   1.079       .  S
C1907      C1908   1.406       .  A
C1907      O1912   1.372       .  S
C1908      C1909   1.408       .  A
C1909      C1910   1.408       .  A
C1909      H1913   1.083       .  S
C1910      O1914   1.372       .  S
O1912      H1916   0.992       .  S
O1914      H1915   0.992       .  S
C1917      C1918   1.399       .  A
C1917      C1922   1.416       .  A
C1918      C1919   1.392       .  A
C1918      H1923   1.084       .  S
C1919      C1920   1.417       .  A
C1919      O1924   1.372       .  S
C1920      C1921   1.395       .  A
C1921      C1922   1.390       .  A
C1921      H1925   1.082       .  S
C1922      O1926   1.371       .  S
O1924      H1928   0.993       .  S
O1926      H1927   0.990       .  S
C1929      C1930   1.415       .  A
C1929      C1934   1.402       .  A
C1930      C1931   1.390       .  A
C1930      H1935   1.085       .  S
C1931      C1932   1.393       .  A
C1931      O1936   1.372       .  S
C1932      C1933   1.408       .  A
C1933      C1934   1.404       .  A
C1933      H1937   1.084       .  S
C1934      O2222   1.370       .  S
O1936      H1940   0.992       .  S
O1938      C2218   1.370       .  S
O1938      H1939   0.991       .  S
C1941      C1942   1.411       .  A
C1941      C1946   1.403       .  A
C1942      C1943   1.398       .  A
C1943      C1944   1.405       .  A
C1944      C1945   1.408       .  A
C1945      C1946   1.387       .  A
C1945      H1949   1.083       .  S
C1946      O1950   1.373       .  S
O1948      H1952   0.992       .  S
O1950      H1951   0.991       .  S
C1953      C1954   1.404       .  A
C1954      C1955   1.401       .  A
C1954      H1959   1.083       .  S
C1955      C1956   1.408       .  A
C1955      O1960   1.375       .  S
C1957      C1958   1.402       .  A
C1957      H1961   1.082       .  S
C1958      O1962   1.371       .  S
O1960      H1964   0.991       .  S
O1962      H1963   0.994       .  S
C1965      C1966   1.412       .  A
C1965      C1970   1.400       .  A
C1966      C1967   1.384       .  A
C1966      H1971   1.084       .  S
C1967      C1968   1.400       .  A
C1967      O1972   1.375       .  S
C1968      C1969   1.405       .  A
C1969      C1970   1.395       .  A
O1972      H1976   0.990       .  S
O1974      H1975   0.991       .  S
C1977      C1982   1.401       .  A
C1978      C1979   1.378       .  A
C1978      H1983   1.086       .  S
C1979      O1984   1.372       .  S
C1980      C1981   1.408       .  A
C1981      C1982   1.400       .  A
C1981      H1985   1.083       .  S
C1982      O1986   1.371       .  S
O1984      H1988   0.991       .  S
O1986      H1987   0.993       .  S
C1989      C1990   1.521       .  S
C1989      C1995   1.531       .  S
C1989      C1993   1.526       .  S
C1989      C2108   1.523       .  S
C1990      H1997   1.088       .  S
C1990      C1991   1.366       .  D
C1991      C1992   1.583       .  S
C1991      C2050   1.515       .  S
C1992      C1996   1.600       .  S
C1992      C1994   1.578       .  S
C1992      H1998   1.110       .  S
C1993      H1999   1.087       .  S
C1993      C1994   1.357       .  D
C1994      C2024   1.512       .  S
C1995      H2000   1.086       .  S
C1995      C1996   1.374       .  D
C1996      C2082   1.526       .  S
C2001      C2002   1.543       .  S
C2001      C2007   1.526       .  S
C2001      C2005   1.540       .  S
C2001      C2128   1.530       .  S
C2002      H2009   1.082       .  S
C2002      C2003   1.378       .  D
C2003      C2004   1.549       .  S
C2003      C2097   1.493       .  S
C2004      C2008   1.591       .  S
C2004      C2006   1.570       .  S
C2004      H2010   1.110       .  S
C2005      H2011   1.087       .  S
C2005      C2006   1.364       .  D
C2006      C2039   1.516       .  S
C2007      H2012   1.082       .  S
C2007      C2008   1.363       .  D
C2008      C2070   1.532       .  S
O2013      C2021   1.276       .  A
O2014      C2022   1.262       .  A
O2016      C2024   1.275       .  A
O2017      C2023   1.251       .  A
O2017     Co2034   1.931       .  S
O2018      C2024   1.263       .  A
O2019      C2022   1.270       .  A
O2019     Co2036   1.998       .  S
O2020      C2021   1.283       .  A
C2021      C2225   1.471       .  S
C2022      C2252   1.447       .  S
C2023      C2216   1.458       .  S
O2025      C2038   1.294       .  A
O2025     Co2033   2.068       .  S
O2026      C2039   1.279       .  A
O2027      C2040   1.243       .  A
O2027     Co2035   1.924   1_556  S
O2028     Co2036   2.024   1_545  S
O2030     Co2033   1.989       .  S
O2031      C2038   1.273       .  A
O2032      C2039   1.246       .  A
C2038      C2201   1.471       .  S
C2040      C2261   1.439       .  S
C2041      C2237   1.484       .  S
O2042      C2050   1.262       .  A
O2042     Co2062   2.024       .  S
O2043      C2051   1.232       .  A
O2043     Co2063   1.944       .  S
O2044      C2052   1.263       .  A
O2045      C2053   1.256       .  A
O2046      C2052   1.276       .  A
O2046     Co2063   2.000       .  S
O2047      C2053   1.277       .  A
O2047     Co2062   2.007       .  S
O2048      C2051   1.265       .  A
O2048     Co2065   2.075       .  S
O2049      C2050   1.262       .  A
O2049     Co2064   1.997       .  S
C2051      C2189   1.481       .  S
C2052      C2156   1.447       .  S
C2053      C2204   1.470       .  S
O2054      C2067   1.271       .  A
O2054     Co2062   1.995       .  S
O2055      C2068   1.270       .  A
O2055     Co2063   2.022       .  S
O2056      C2069   1.266       .  A
O2056     Co2064   1.967       .  S
O2057      C2070   1.275       .  A
O2057     Co2065   2.051       .  S
O2058      C2070   1.287       .  A
O2058     Co2063   2.021       .  S
O2059      C2069   1.283       .  A
O2059     Co2062   2.046       .  S
O2060      C2067   1.261       .  A
O2061     Co2064   1.948   1_554  S
Co2062     O2066   2.087       .  S
Co2064     O2066   2.053       .  S
C2067      C2165   1.478       .  S
C2068      C2213   1.475       .  S
C2069      C2180   1.493       .  S
O2071      C2079   1.274       .  A
O2072      C2080   1.257       .  A
O2073      C2081   1.274       .  A
O2073     Co2093   2.025       .  S
O2074      C2082   1.315       .  A
O2074     Co2094   2.073       .  S
O2075      C2081   1.255       .  A
O2075     Co2092   1.921       .  S
O2076      C2082   1.295       .  A
O2076     Co2091   1.997       .  S
O2077      C2080   1.261       .  A
O2077     Co2094   1.973       .  S
O2078      C2079   1.262       .  A
O2078     Co2093   1.965       .  S
C2079      C2177   1.478       .  S
C2080      C2249   1.464       .  S
C2081      C2141   1.465       .  S
O2083      C2096   1.237       .  A
O2083     Co2091   2.046       .  S
O2084      C2097   1.265       .  A
O2084     Co2092   2.026       .  S
O2085      C2098   1.259       .  A
O2085     Co2093   1.930       .  S
O2086      C2099   1.290       .  A
O2086     Co2094   2.046       .  S
O2087      C2099   1.275       .  A
O2088     Co2091   2.009   1_455  S
O2089      C2096   1.215       .  A
O2089     Co2094   1.940       .  S
O2090      C2097   1.254       .  A
O2090     Co2093   1.957       .  S
Co2091     O2095   2.144   1_655  S
Co2094     O2095   1.992   1_655  S
C2096      C2132   1.442       .  S
C2098      C2264   1.465       .  S
C2099      C2192   1.491       .  S
O2100      C2108   1.269       .  A
O2101      C2109   1.255       .  A
O2102      C2110   1.270       .  A
O2102     Co2122   1.963       .  S
O2103      C2111   1.272       .  A
O2103     Co2123   2.020       .  S
O2104      C2110   1.294       .  A
O2104     Co2121   2.037   1_565  S
O2105      C2111   1.250       .  A
O2105     Co2120   1.920       .  S
O2106      C2109   1.246       .  A
O2106     Co2123   2.039       .  S
O2107      C2108   1.274       .  A
O2107     Co2122   2.017       .  S
C2109      C2240   1.472       .  S
C2110      C2153   1.465       .  S
C2111      C2129   1.458       .  S
O2112      C2125   1.277       .  A
O2112     Co2120   2.024       .  S
O2113      C2126   1.231       .  A
O2113     Co2121   1.986   1_565  S
O2114      C2127   1.242       .  A
O2114     Co2122   1.920       .  S
O2115      C2128   1.286       .  A
O2115     Co2123   2.006       .  S
O2116      C2128   1.283       .  A
O2117      C2127   1.255       .  A
O2118      C2125   1.265       .  A
O2118     Co2123   1.965       .  S
O2119      C2126   1.238       .  A
O2119     Co2122   1.953       .  S
Co2121     O2124   2.050   1_545  S
Co2122     O2124   2.040       .  S
C2125      C2168   1.477       .  S
C2126      C2144   1.447       .  S
C2127      C2228   1.472       .  S
C2129      C2130   1.397       .  A
C2129      C2134   1.415       .  A
C2130      C2131   1.397       .  A
C2130      H2135   1.084       .  S
C2131      C2132   1.408       .  A
C2131      O2136   1.372       .  S
C2132      C2133   1.390       .  A
C2133      C2134   1.385       .  A
C2133      H2137   1.085       .  S
C2134      O2138   1.374       .  S
O2136      H2140   0.992       .  S
O2138      H2139   0.991       .  S
C2141      C2142   1.408       .  A
C2141      C2146   1.405       .  A
C2142      C2143   1.385       .  A
C2142      H2147   1.084       .  S
C2143      C2144   1.395       .  A
C2143      O2148   1.372       .  S
C2144      C2145   1.405       .  A
C2145      C2146   1.401       .  A
C2145      H2149   1.083       .  S
C2146      O2150   1.373       .  S
O2148      H2152   0.994       .  S
O2150      H2151   0.990       .  S
C2153      C2154   1.409       .  A
C2153      C2158   1.406       .  A
C2154      C2155   1.391       .  A
C2154      H2159   1.084       .  S
C2155      C2156   1.399       .  A
C2155      O2160   1.373       .  S
C2156      C2157   1.400       .  A
C2157      C2158   1.386       .  A
C2157      H2161   1.084       .  S
C2158      O2162   1.370       .  S
O2160      H2164   0.992       .  S
O2162      H2163   0.992       .  S
C2165      C2166   1.402       .  A
C2165      C2170   1.416       .  A
C2166      C2167   1.400       .  A
C2166      H2171   1.085       .  S
C2167      C2168   1.410       .  A
C2167      O2172   1.372       .  S
C2168      C2169   1.400       .  A
C2169      C2170   1.402       .  A
C2169      H2173   1.080       .  S
C2170      O2174   1.372       .  S
O2172      H2176   0.991       .  S
O2174      H2175   0.992       .  S
C2177      C2178   1.404       .  A
C2177      C2182   1.413       .  A
C2178      C2179   1.408       .  A
C2178      H2183   1.084       .  S
C2179      C2180   1.414       .  A
C2179      O2184   1.370       .  S
C2180      C2181   1.401       .  A
C2181      C2182   1.405       .  A
C2181      H2185   1.083       .  S
C2182      O2186   1.370       .  S
O2184      H2188   0.991       .  S
O2186      H2187   0.993       .  S
C2189      C2190   1.409       .  A
C2189      C2194   1.409       .  A
C2190      C2191   1.405       .  A
C2190      H2195   1.079       .  S
C2191      C2192   1.406       .  A
C2191      O2196   1.372       .  S
C2192      C2193   1.408       .  A
C2193      C2194   1.408       .  A
C2193      H2197   1.083       .  S
C2194      O2198   1.372       .  S
O2196      H2200   0.992       .  S
O2198      H2199   0.992       .  S
C2201      C2202   1.399       .  A
C2201      C2206   1.416       .  A
C2202      C2203   1.392       .  A
C2202      H2207   1.084       .  S
C2203      C2204   1.417       .  A
C2203      O2208   1.372       .  S
C2204      C2205   1.395       .  A
C2205      C2206   1.390       .  A
C2205      H2209   1.082       .  S
C2206      O2210   1.371       .  S
O2208      H2212   0.993       .  S
O2210      H2211   0.990       .  S
C2213      C2214   1.415       .  A
C2213      C2218   1.402       .  A
C2214      C2215   1.389       .  A
C2214      H2219   1.085       .  S
C2215      C2216   1.393       .  A
C2215      O2220   1.372       .  S
C2216      C2217   1.408       .  A
C2217      C2218   1.404       .  A
C2217      H2221   1.084       .  S
O2220      H2224   0.992       .  S
O2222      H2223   0.991       .  S
C2225      C2226   1.411       .  A
C2225      C2230   1.403       .  A
C2226      C2227   1.398       .  A
C2227      C2228   1.405       .  A
C2228      C2229   1.408       .  A
C2229      C2230   1.387       .  A
C2229      H2233   1.083       .  S
C2230      O2234   1.373       .  S
O2232      H2236   0.992       .  S
O2234      H2235   0.991       .  S
C2237      C2238   1.404       .  A
C2238      C2239   1.401       .  A
C2238      H2243   1.083       .  S
C2239      C2240   1.408       .  A
C2239      O2244   1.375       .  S
C2241      C2242   1.402       .  A
C2241      H2245   1.082       .  S
C2242      O2246   1.371       .  S
O2244      H2248   0.991       .  S
O2246      H2247   0.994       .  S
C2249      C2250   1.412       .  A
C2249      C2254   1.400       .  A
C2250      C2251   1.384       .  A
C2250      H2255   1.084       .  S
C2251      C2252   1.400       .  A
C2251      O2256   1.375       .  S
C2252      C2253   1.406       .  A
C2253      C2254   1.395       .  A
O2256      H2260   0.990       .  S
O2258      H2259   0.991       .  S
C2261      C2266   1.401       .  A
C2262      C2263   1.378       .  A
C2262      H2267   1.086       .  S
C2263      O2268   1.372       .  S
C2264      C2265   1.408       .  A
C2265      C2266   1.400       .  A
C2265      H2269   1.083       .  S
C2266      O2270   1.371       .  S
O2268      H2272   0.991       .  S
O2270      H2271   0.993       .  S
