geometry optimzed in LAMMPS
_audit_creation_date              2020-11-30 
_audit_creation_method            'lammps2cif' 
_symmetry_space_group_name_H-M    'P1' 
_symmetry_Int_Tables_number       1 
_symmetry_cell_setting            triclinic 
loop_ 
_symmetry_equiv_pos_as_xyz 
  x,y,z 
_cell_length_a                    25.319322974323512 
_cell_length_b                    25.324568386812405 
_cell_length_c                    44.21069528052207 
_cell_angle_alpha                 89.42742488744717 
_cell_angle_beta                  89.63967169478299 
_cell_angle_gamma                 91.18573068359814 
loop_ 
_atom_site_label 
_atom_site_type_symbol 
_atom_site_fract_x 
_atom_site_fract_y 
_atom_site_fract_z 
_atom_site_charge 
C1          C  0.74477184  0.49799837  0.24210492     0.02970
C2          C  0.71461167  0.45027402  0.24039974    -0.13180
C3          C  0.66418842  0.44778701  0.25351473     0.00470
C4          C  0.64790037  0.49220371  0.26935512    -0.11700
C5          C  0.66734376  0.54263554  0.26109218     0.02970
C6          C  0.71847632  0.54562458  0.24873466    -0.11120
H7          H  0.73092051  0.41550841  0.23011034     0.08560
H8          H  0.61406969  0.48894743  0.28380968     0.06090
H9          H  0.73754276  0.58378186  0.24488534     0.05940
C10         C  0.57813119  0.66331451  0.26900189     0.02970
C11         C  0.62573307  0.63421183  0.27011471    -0.13180
C12         C  0.62653120  0.58419017  0.25683019     0.00470
C13         C  0.58119303  0.56817339  0.24153831    -0.11700
C14         C  0.53155542  0.58507175  0.25071812     0.02970
C15         C  0.52959615  0.63575463  0.26313378    -0.11120
H16         H  0.66153467  0.65135205  0.27945332     0.08560
H17         H  0.58341887  0.53515967  0.22707745     0.06090
H18         H  0.49183716  0.65396355  0.26686737     0.05940
C19         C  0.57055916  0.32826947  0.25884061     0.02970
C20         C  0.61940771  0.35680904  0.25912856    -0.13180
C21         C  0.62265264  0.40722733  0.24596764     0.00470
C22         C  0.57802311  0.42488885  0.23071678    -0.11700
C23         C  0.52747046  0.40662871  0.23944257     0.02970
C24         C  0.52353533  0.35557322  0.25197302    -0.11120
H25         H  0.65435170  0.33937909  0.26869261     0.08560
H26         H  0.58159526  0.45872947  0.21619383     0.06090
H27         H  0.48497339  0.33729179  0.25550861     0.05940
C28         C  0.40945471  0.49936831  0.23203190     0.02970
C29         C  0.43806882  0.54693228  0.23863527    -0.13180
C30         C  0.48851628  0.54320613  0.25126479     0.00470
C31         C  0.50412869  0.49271796  0.25998116    -0.11700
C32         C  0.48711365  0.44843385  0.24405380     0.02970
C33         C  0.43749312  0.45122423  0.23033648    -0.11120
H34         H  0.42087195  0.58530352  0.23527010     0.08560
H35         H  0.53691463  0.48904087  0.27460147     0.06090
H36         H  0.41970922  0.41634903  0.22032237     0.05940
O37         O  0.11244912  0.50204549  0.03101167    -0.73100
O38         O  0.11489169  0.50245645  0.44028911    -0.74080
O39         O  0.11289725  0.58124207  0.98484697    -0.62700
O40         O  0.11439840  0.42301706  0.98575294    -0.71110
O41         O  0.02685922  0.42019858  0.98365712    -0.70660
O42         O  0.02519809  0.57832347  0.98639540    -0.61920
O43         O  0.02730051  0.50262452  0.43987582    -0.74430
O44         O  0.02517074  0.49657705  0.03072753    -0.73200
Cu45       Cu  0.11670320  0.50220461  0.98557442     1.04560
Cu46       Cu  0.02306154  0.49924801  0.98522280     1.04330
C47         C  0.06844549  0.49948779  0.04536768     0.93100
C48         C  0.07149064  0.50374917  0.42574774     0.92240
C49         C  0.06872326  0.60466991  0.98519395     0.84380
C50         C  0.07097213  0.39665402  0.98397245     0.90650
O51         O  0.07761038  0.55077060  0.28034700    -0.73100
O52         O  0.07581622  0.54822781  0.18943357    -0.74080
O53         O  0.99790449  0.54864221  0.23529154    -0.62700
O54         O  0.15666239  0.55045579  0.23364311    -0.71110
O55         O  0.15548814  0.46287184  0.23503732    -0.70660
O56         O  0.99765213  0.46104593  0.23714242    -0.61920
O57         O  0.07555006  0.46045155  0.19093215    -0.74430
O58         O  0.07828573  0.46311380  0.28149739    -0.73200
Cu59       Cu  0.07710321  0.55265942  0.23471538     1.04560
Cu60       Cu  0.07670239  0.45886873  0.23625320     1.04330
C61         C  0.07832455  0.50723551  0.29521925     0.93100
C62         C  0.07520217  0.50382965  0.17599208     0.92240
C63         C  0.97277011  0.50440745  0.23599050     0.84380
C64         C  0.18110997  0.50679893  0.23352542     0.90650
O65         O  0.56994284  0.95590047  0.05926524    -0.73100
O66         O  0.56886613  0.95608069  0.46857063    -0.74080
O67         O  0.64903223  0.95488560  0.51356157    -0.62700
O68         O  0.49050996  0.95732075  0.51472576    -0.71110
O69         O  0.49438598  0.04491816  0.51232254    -0.70660
O70         O  0.65267589  0.04247942  0.51489205    -0.61920
O71         O  0.57620736  0.04362715  0.46796789    -0.74430
O72         O  0.57139008  0.04350402  0.05878389    -0.73200
Cu73       Cu  0.56953243  0.95298010  0.51398870     1.04560
Cu74       Cu  0.57373820  0.04670610  0.51342179     1.04330
C75         C  0.57081056  0.99968938  0.07336942     0.93100
C76         C  0.57239019  0.99981686  0.45398404     0.92240
C77         C  0.67582260  0.99817080  0.51461172     0.84380
C78         C  0.46748979  0.00168071  0.51353752     0.90650
O79         O  0.61410363  0.99650553  0.21768224    -0.73100
O80         O  0.61671229  0.99883199  0.30830019    -0.74080
O81         O  0.61609309  0.91820966  0.26435211    -0.62700
O82         O  0.61451398  0.07627852  0.26177134    -0.71110
O83         O  0.52686005  0.07391610  0.26281554    -0.70660
O84         O  0.52853455  0.91519347  0.26646219    -0.61920
O85         O  0.52918551  0.99676069  0.30963171    -0.74430
O86         O  0.52644170  0.99200641  0.21883119    -0.73200
Cu87       Cu  0.61836431  0.99747015  0.26294735     1.04560
Cu88       Cu  0.52465252  0.99435406  0.26440221     1.04330
C89         C  0.56991452  0.99399813  0.20395820     0.93100
C90         C  0.57347740  0.99870866  0.32333079     0.92240
C91         C  0.57269689  0.89170280  0.26649865     0.84380
C92         C  0.57055754  0.10009287  0.26184221     0.90650
C93         C  0.06751032  0.83223525  0.98812697     0.02970
C94         C  0.11706535  0.85964913  0.98977699    -0.13180
C95         C  0.11868015  0.91041634  0.00218809     0.00470
C96         C  0.07192112  0.92810653  0.01522311    -0.11700
C97         C  0.02287131  0.91129583  0.00416035     0.02970
C98         C  0.02028445  0.86115660  0.99117289    -0.11120
H99         H  0.15328212  0.84136895  0.98262352     0.08560
H100        H  0.07379167  0.96120225  0.02977938     0.06090
H101        H  0.98248103  0.84402281  0.98477565     0.05940
C102        C  0.23934391  0.00104976  0.51284833     0.02970
C103        C  0.21151099  0.95204757  0.50940262    -0.13180
C104        C  0.16098163  0.95190165  0.99660692     0.00470
C105        C  0.14396575  0.99963087  0.48424711    -0.11700
C106        C  0.16155589  0.04783355  0.49603232     0.02970
C107        C  0.21149034  0.04893676  0.50945273    -0.11120
H108        H  0.22918403  0.91491841  0.51542707     0.08560
H109        H  0.11068297  0.99902817  0.96966680     0.06090
H110        H  0.22906678  0.08620694  0.51639729     0.05940
C111        C  0.07414469  0.16850915  0.98570548     0.02970
C112        C  0.12150095  0.13925035  0.98639011    -0.13180
C113        C  0.12062031  0.08915419  0.00010164     0.00470
C114        C  0.07328728  0.07263479  0.01389303    -0.11700
C115        C  0.02492711  0.09033363  0.00305403     0.02970
C116        C  0.02492011  0.14114712  0.99014789    -0.11120
H117        H  0.15834349  0.15623193  0.97786349     0.08560
H118        H  0.07335755  0.03963041  0.02889888     0.06090
H119        H  0.98784405  0.15947113  0.98477096     0.05940
C120        C  0.90404326  0.99976307  0.01734711     0.02970
C121        C  0.93211390  0.95184029  0.01480220    -0.13180
C122        C  0.98192151  0.95281672  0.00087127     0.00470
C123        C  0.99903312  0.00064317  0.98792395    -0.11700
C124        C  0.98240460  0.04856118  0.99963352     0.02970
C125        C  0.93188785  0.04878793  0.01285427    -0.11120
H126        H  0.91453078  0.91462567  0.02238360     0.08560
H127        H  0.03214392  0.00091264  0.97305521     0.06090
H128        H  0.91410897  0.08606978  0.01811991     0.05940
C129        C  0.81838759  0.96508254  0.49870164    -0.09310
C130        C  0.84546926  0.99752069  0.01938458     0.06880
C131        C  0.81593303  0.02934478  0.03898469    -0.03080
C132        C  0.76068112  0.02929886  0.03692282    -0.07530
C133        C  0.73397909  0.99714349  0.51600260     0.06000
C134        C  0.76336118  0.96452213  0.49692583    -0.02550
Br135      Br  0.73094073  0.92168745  0.46629694    -0.02250
H136        H  0.84031663  0.94118173  0.48299512     0.09910
H137        H  0.73836237  0.05384983  0.05209764     0.07930
Br138      Br  0.84826058  0.07090782  0.07011990    -0.02680
C139        C  0.38108907  0.97162881  0.03520816    -0.09310
C140        C  0.40932168  0.00289108  0.51396063     0.06880
C141        C  0.38143943  0.03491716  0.49365026    -0.03080
C142        C  0.32631732  0.03461605  0.49456044    -0.07530
C143        C  0.29773736  0.00306850  0.51559121     0.06000
C144        C  0.32575698  0.97192039  0.03642257    -0.02550
Br145      Br  0.29115328  0.93190330  0.06813881    -0.02250
H146        H  0.40225265  0.94760348  0.05131794     0.09910
H147        H  0.30554214  0.05804437  0.47799189     0.07930
Br148      Br  0.41621717  0.07667446  0.46263763    -0.02680
C149        C  0.53266876  0.97465704  0.37289834    -0.09310
C150        C  0.57421680  0.99989397  0.35679953     0.06880
C151        C  0.61483253  0.02586740  0.37311728    -0.03080
C152        C  0.61320022  0.02586056  0.40478104    -0.07530
C153        C  0.57219071  0.99971992  0.42068574     0.06000
C154        C  0.53154113  0.97415516  0.40451310    -0.02550
Br155      Br  0.47208959  0.94054640  0.42446914    -0.02250
H156        H  0.50097563  0.95482055  0.36084927     0.09910
H157        H  0.64440091  0.04600020  0.41708618     0.07930
Br158      Br  0.67216608  0.06432920  0.35384068    -0.02680
C159        C  0.54130986  0.95969247  0.12228231    -0.09310
C160        C  0.57070005  0.99923528  0.10678765     0.06880
C161        C  0.60016962  0.03655123  0.12359423    -0.03080
C162        C  0.59958988  0.03376367  0.15520627    -0.07530
C163        C  0.56943903  0.99485870  0.17062502     0.06000
C164        C  0.54019060  0.95747711  0.15391773    -0.02550
Br165      Br  0.50090364  0.90071023  0.17310508    -0.02250
H166        H  0.51888253  0.93044226  0.10972505     0.09910
H167        H  0.62266454  0.06236104  0.16785502     0.07930
Br168      Br  0.64450957  0.09020124  0.10490491    -0.02680
C169        C  0.04154974  0.25333346  0.46391162    -0.09310
C170        C  0.07629055  0.22699174  0.98327228     0.06880
C171        C  0.10921252  0.25729240  0.00256301    -0.03080
C172        C  0.10752841  0.31231496  0.00173114    -0.07530
C173        C  0.07222474  0.33848879  0.98285143     0.06000
C174        C  0.03910015  0.30858252  0.46366311    -0.02550
Br175      Br  0.99135536  0.34098765  0.43586651    -0.02250
H176        H  0.01590812  0.23085040  0.44907893     0.09910
H177        H  0.13257474  0.33482101  0.01690174     0.07930
Br178      Br  0.15335986  0.22676197  0.03308336    -0.02680
C179        C  0.09492808  0.74829843  0.46379824    -0.09310
C180        C  0.06511856  0.77393591  0.98592646     0.06880
C181        C  0.03659715  0.74311598  0.00763492    -0.03080
C182        C  0.03738908  0.68811470  0.00642965    -0.07530
C183        C  0.06768776  0.66268185  0.98464447     0.06000
C184        C  0.09651294  0.69305507  0.46308114    -0.02550
Br185      Br  0.13669542  0.66091985  0.43152299    -0.02250
H186        H  0.11719344  0.77129155  0.44711732     0.09910
H187        H  0.01577828  0.66500501  0.02336202     0.07930
Br188      Br  0.00017120  0.77306970  0.04148697    -0.02680
C189        C  0.04012734  0.53699607  0.34382321    -0.09310
C190        C  0.07818939  0.50768323  0.32855027     0.06880
C191        C  0.11456981  0.47827991  0.34540071    -0.03080
C192        C  0.11189874  0.47793712  0.37699570    -0.07530
C193        C  0.07287321  0.50597644  0.39235219     0.06000
C194        C  0.03692340  0.53611988  0.37545606    -0.02550
Br195      Br  0.98446100  0.57900929  0.39414855    -0.02330
H196        H  0.01222654  0.56005968  0.33105733     0.09910
H197        H  0.14020018  0.45514447  0.38962582     0.07930
Br198      Br  0.17031703  0.44010951  0.32646614    -0.02680
C199        C  0.02632296  0.51327240  0.12814972    -0.09310
C200        C  0.07366519  0.50254865  0.14288051     0.06880
C201        C  0.11864059  0.49042680  0.12583561    -0.03080
C202        C  0.11587109  0.48946074  0.09426574    -0.07530
C203        C  0.06839362  0.49999839  0.07906111     0.06000
C204        C  0.02304722  0.51186371  0.09656844    -0.02550
Br205      Br  0.95564314  0.52836827  0.07957193    -0.02250
H206        H  0.99158658  0.52261892  0.14134754     0.09910
H207        H  0.15120352  0.48026453  0.08160122     0.07930
Br208      Br  0.18493678  0.47637963  0.14481734    -0.02680
C209        C  0.32519406  0.53879068  0.21399211    -0.09310
C210        C  0.35087786  0.49920672  0.23046241     0.06880
C211        C  0.31994502  0.46323037  0.24818770    -0.03080
C212        C  0.26504600  0.46639722  0.24831735    -0.07530
C213        C  0.23943373  0.50608081  0.23212954     0.06000
C214        C  0.27003845  0.54279100  0.21488506    -0.02550
Br215      Br  0.23905907  0.59806734  0.19134664    -0.02250
H216        H  0.34814598  0.56705327  0.20055092     0.09910
H217        H  0.24219198  0.43854892  0.26211971     0.07930
Br218      Br  0.34933376  0.41217593  0.27551177    -0.02680
C219        C  0.53591762  0.18533896  0.28028583    -0.09310
C220        C  0.57045020  0.15834131  0.26112811     0.06880
C221        C  0.60525506  0.18759648  0.24211181    -0.03080
C222        C  0.60495903  0.24264274  0.24248147    -0.07530
C223        C  0.57061703  0.26989901  0.26161014     0.06000
C224        C  0.53606989  0.24071607  0.28087790    -0.02550
Br225      Br  0.49117013  0.27403698  0.30977512    -0.02250
H226        H  0.50959668  0.16324910  0.29537997     0.09910
H227        H  0.63100022  0.26441874  0.22707257     0.07930
Br228      Br  0.65156345  0.15490744  0.21358460    -0.02680
C229        C  0.54246018  0.74823112  0.28827141    -0.09310
C230        C  0.57960319  0.72189967  0.27048861     0.06880
C231        C  0.61417844  0.75223282  0.25156659    -0.03080
C232        C  0.61170466  0.80725211  0.25123552    -0.07530
C233        C  0.57414725  0.83344955  0.26859378     0.06000
C234        C  0.53934322  0.80345652  0.28739536    -0.02550
Br235      Br  0.48826118  0.83562002  0.31324710    -0.02250
H236        H  0.51544568  0.72572456  0.30274610     0.09910
H237        H  0.63812443  0.82970130  0.23635510     0.07930
Br238      Br  0.66201412  0.72161715  0.22300930    -0.02680
C239        C  0.88846902  0.46491682  0.25435742    -0.09310
C240        C  0.91449379  0.50284944  0.23610400     0.06880
C241        C  0.88431576  0.53809000  0.21870193    -0.03080
C242        C  0.82903904  0.53507340  0.22011315    -0.07530
C243        C  0.80300302  0.49752396  0.23877598     0.06000
C244        C  0.83347962  0.46243425  0.25622331    -0.02550
Br245      Br  0.80331029  0.41353205  0.28542490    -0.02250
H246        H  0.91114987  0.43813868  0.26816890     0.09910
H247        H  0.80630405  0.56226676  0.20663176     0.07930
Br248      Br  0.91606839  0.58948813  0.19165142    -0.02680
C249        C  0.74477185  0.49799831  0.74210490     0.02970
C250        C  0.71461168  0.45027396  0.74039972    -0.13180
C251        C  0.66418843  0.44778694  0.75351470     0.00470
C252        C  0.64790038  0.49220364  0.76935510    -0.11700
C253        C  0.66734377  0.54263547  0.76109216     0.02970
C254        C  0.71847633  0.54562452  0.74873464    -0.11120
H255        H  0.73092053  0.41550834  0.73011032     0.08560
H256        H  0.61406971  0.48894737  0.78380966     0.06090
H257        H  0.73754277  0.58378180  0.74488532     0.05940
C258        C  0.57813121  0.66331445  0.76900188     0.02970
C259        C  0.62573309  0.63421177  0.77011469    -0.13180
C260        C  0.62653122  0.58419011  0.75683017     0.00470
C261        C  0.58119304  0.56817333  0.74153829    -0.11700
C262        C  0.53155543  0.58507169  0.75071810     0.02970
C263        C  0.52959617  0.63575457  0.76313377    -0.11120
H264        H  0.66153469  0.65135198  0.77945331     0.08560
H265        H  0.58341888  0.53515961  0.72707743     0.06090
H266        H  0.49183718  0.65396349  0.76686736     0.05940
C267        C  0.57055917  0.32826941  0.75884059     0.02970
C268        C  0.61940773  0.35680898  0.75912853    -0.13180
C269        C  0.62265265  0.40722726  0.74596762     0.00470
C270        C  0.57802312  0.42488879  0.73071676    -0.11700
C271        C  0.52747047  0.40662865  0.73944256     0.02970
C272        C  0.52353534  0.35557316  0.75197301    -0.11120
H273        H  0.65435171  0.33937902  0.76869258     0.08560
H274        H  0.58159526  0.45872942  0.71619382     0.06090
H275        H  0.48497341  0.33729173  0.75550860     0.05940
C276        C  0.40945472  0.49936825  0.73203189     0.02970
C277        C  0.43806883  0.54693222  0.73863525    -0.13180
C278        C  0.48851629  0.54320607  0.75126477     0.00470
C279        C  0.50412870  0.49271790  0.75998115    -0.11700
C280        C  0.48711366  0.44843379  0.74405379     0.02970
C281        C  0.43749313  0.45122417  0.73033648    -0.11120
H282        H  0.42087197  0.58530346  0.73527008     0.08560
H283        H  0.53691464  0.48904082  0.77460146     0.06090
H284        H  0.41970922  0.41634897  0.72032237     0.05940
O285        O  0.11244913  0.50204551  0.53101168    -0.73100
O286        O  0.11489169  0.50245642  0.94028909    -0.74080
O287        O  0.11289723  0.58124208  0.48484700    -0.62700
O288        O  0.11439842  0.42301709  0.48575297    -0.71110
O289        O  0.02685924  0.42019859  0.48365715    -0.70660
O290        O  0.02519807  0.57832346  0.48639544    -0.61920
O291        O  0.02730052  0.50262451  0.93987580    -0.74430
O292        O  0.02517074  0.49657704  0.53072755    -0.73200
Cu293      Cu  0.11670320  0.50220464  0.48557444     1.04560
Cu294      Cu  0.02306154  0.49924801  0.48522282     1.04330
C295        C  0.06844550  0.49948780  0.54536770     0.93100
C296        C  0.07149065  0.50374915  0.92574773     0.92240
C297        C  0.06872323  0.60466991  0.48519401     0.84380
C298        C  0.07097216  0.39665405  0.48397251     0.90650
O299        O  0.07761040  0.55077056  0.78034699    -0.73100
O300        O  0.07581623  0.54822778  0.68943358    -0.74080
O301        O  0.99790450  0.54864217  0.73529155    -0.62700
O302        O  0.15666241  0.55045574  0.73364310    -0.71110
O303        O  0.15548816  0.46287180  0.73503732    -0.70660
O304        O  0.99765215  0.46104589  0.73714241    -0.61920
O305        O  0.07555009  0.46045151  0.69093215    -0.74430
O306        O  0.07828574  0.46311376  0.78149738    -0.73200
Cu307      Cu  0.07710323  0.55265938  0.73471538     1.04560
Cu308      Cu  0.07670241  0.45886869  0.73625320     1.04330
C309        C  0.07832457  0.50723547  0.79521925     0.93100
C310        C  0.07520218  0.50382962  0.67599209     0.92240
C311        C  0.97277012  0.50440741  0.73599050     0.84380
C312        C  0.18110999  0.50679888  0.73352541     0.90650
O313        O  0.56994281  0.95590045  0.55926523    -0.73100
O314        O  0.56886614  0.95608068  0.96857063    -0.74080
O315        O  0.64903227  0.95488563  0.01356157    -0.62700
O316        O  0.49050996  0.95732075  0.01472577    -0.71110
O317        O  0.49438597  0.04491815  0.01232254    -0.70660
O318        O  0.65267591  0.04247944  0.01489205    -0.61920
O319        O  0.57620736  0.04362714  0.96796789    -0.74430
O320        O  0.57139007  0.04350400  0.55878390    -0.73200
Cu321      Cu  0.56953245  0.95298011  0.01398870     1.04560
Cu322      Cu  0.57373820  0.04670611  0.01342178     1.04330
C323        C  0.57081054  0.99968935  0.57336942     0.93100
C324        C  0.57239020  0.99981685  0.95398403     0.92240
C325        C  0.67582264  0.99817083  0.01461172     0.84380
C326        C  0.46748977  0.00168070  0.01353753     0.90650
O327        O  0.61410365  0.99650546  0.71768224    -0.73100
O328        O  0.61671231  0.99883193  0.80830019    -0.74080
O329        O  0.61609311  0.91820960  0.76435211    -0.62700
O330        O  0.61451400  0.07627846  0.76177134    -0.71110
O331        O  0.52686006  0.07391604  0.76281554    -0.70660
O332        O  0.52853456  0.91519340  0.76646219    -0.61920
O333        O  0.52918552  0.99676062  0.80963171    -0.74430
O334        O  0.52644172  0.99200633  0.71883119    -0.73200
Cu335      Cu  0.61836433  0.99747008  0.76294735     1.04560
Cu336      Cu  0.52465253  0.99435400  0.76440221     1.04330
C337        C  0.56991453  0.99399806  0.70395820     0.93100
C338        C  0.57347741  0.99870860  0.82333079     0.92240
C339        C  0.57269691  0.89170273  0.76649866     0.84380
C340        C  0.57055755  0.10009281  0.76184220     0.90650
C341        C  0.06751037  0.83223515  0.48812734     0.02970
C342        C  0.11706539  0.85964908  0.48977729    -0.13180
C343        C  0.11868013  0.91041641  0.50218819     0.00470
C344        C  0.07192109  0.92810704  0.51522328    -0.11700
C345        C  0.02287129  0.91129587  0.50416039     0.02970
C346        C  0.02028447  0.86115649  0.49117314    -0.11120
H347        H  0.15328216  0.84136883  0.48262390     0.08560
H348        H  0.07379155  0.96120139  0.52977908     0.06090
H349        H  0.98248109  0.84402259  0.48477593     0.05940
C350        C  0.23934386  0.00104973  0.01284836     0.02970
C351        C  0.21151095  0.95204754  0.00940264    -0.13180
C352        C  0.16098163  0.95190169  0.49660696     0.00470
C353        C  0.14396573  0.99963084  0.98424707    -0.11700
C354        C  0.16155590  0.04783353  0.99603227     0.02970
C355        C  0.21149030  0.04893672  0.00945273    -0.11120
H356        H  0.22918398  0.91491839  0.01542709     0.08560
H357        H  0.11068285  0.99902821  0.46966689     0.06090
H358        H  0.22906673  0.08620691  0.01639729     0.05940
C359        C  0.07414467  0.16850925  0.48570587     0.02970
C360        C  0.12150095  0.13925047  0.48639045    -0.13180
C361        C  0.12062027  0.08915416  0.50010176     0.00470
C362        C  0.07328720  0.07263424  0.51389319    -0.11700
C363        C  0.02492706  0.09033352  0.50305406     0.02970
C364        C  0.02492008  0.14114716  0.49014814    -0.11120
H365        H  0.15834348  0.15623217  0.47786391     0.08560
H366        H  0.07335743  0.03963122  0.52889853     0.06090
H367        H  0.98784403  0.15947123  0.48477125     0.05940
C368        C  0.90404319  0.99976302  0.51734708     0.02970
C369        C  0.93211384  0.95184024  0.51480217    -0.13180
C370        C  0.98192144  0.95281668  0.50087122     0.00470
C371        C  0.99903298  0.00064312  0.48792386    -0.11700
C372        C  0.98240451  0.04856113  0.49963346     0.02970
C373        C  0.93188777  0.04878788  0.51285422    -0.11120
H374        H  0.91453074  0.91462564  0.52238360     0.08560
H375        H  0.03214384  0.00091259  0.47305509     0.06090
H376        H  0.91410890  0.08606972  0.51811989     0.05940
C377        C  0.81838766  0.96508260  0.99870165    -0.09310
C378        C  0.84546920  0.99752063  0.51938457     0.06880
C379        C  0.81593299  0.02934473  0.53898468    -0.03080
C380        C  0.76068108  0.02929882  0.53692281    -0.07530
C381        C  0.73397914  0.99714353  0.01600261     0.06000
C382        C  0.76336125  0.96452218  0.99692584    -0.02550
Br383      Br  0.73094082  0.92168748  0.96629694    -0.02250
H384        H  0.84031670  0.94118178  0.98299513     0.09910
H385        H  0.73836233  0.05384978  0.55209764     0.07930
Br386      Br  0.84826054  0.07090777  0.57011988    -0.02680
C387        C  0.38108910  0.97162883  0.53520814    -0.09310
C388        C  0.40932165  0.00289106  0.01396065     0.06880
C389        C  0.38143939  0.03491713  0.99365027    -0.03080
C390        C  0.32631727  0.03461602  0.99456047    -0.07530
C391        C  0.29773732  0.00306848  0.01559123     0.06000
C392        C  0.32575701  0.97192041  0.53642254    -0.02550
Br393      Br  0.29115331  0.93190331  0.56813878    -0.02250
H394        H  0.40225267  0.94760349  0.55131791     0.09910
H395        H  0.30554209  0.05804433  0.97799191     0.07930
Br396      Br  0.41621710  0.07667441  0.96263764    -0.02680
C397        C  0.53266880  0.97465696  0.87289834    -0.09310
C398        C  0.57421681  0.99989392  0.85679953     0.06880
C399        C  0.61483252  0.02586740  0.87311727    -0.03080
C400        C  0.61320021  0.02586057  0.90478103    -0.07530
C401        C  0.57219072  0.99971990  0.92068574     0.06000
C402        C  0.53154117  0.97415509  0.90451310    -0.02550
Br403      Br  0.47208965  0.94054628  0.92446914    -0.02250
H404        H  0.50097569  0.95482044  0.86084927     0.09910
H405        H  0.64440088  0.04600024  0.91708617     0.07930
Br406      Br  0.67216603  0.06432925  0.85384066    -0.02680
C407        C  0.54130985  0.95969243  0.62228231    -0.09310
C408        C  0.57070004  0.99923523  0.60678766     0.06880
C409        C  0.60016963  0.03655117  0.62359424    -0.03080
C410        C  0.59958989  0.03376360  0.65520627    -0.07530
C411        C  0.56943904  0.99485863  0.67062502     0.06000
C412        C  0.54019059  0.95747706  0.65391773    -0.02550
Br413      Br  0.50090362  0.90071018  0.67310507    -0.02250
H414        H  0.51888250  0.93044223  0.60972505     0.09910
H415        H  0.62266457  0.06236096  0.66785502     0.07930
Br416      Br  0.64450959  0.09020118  0.60490491    -0.02680
C417        C  0.04154977  0.25333350  0.96391128    -0.09310
C418        C  0.07629049  0.22699181  0.48327266     0.06880
C419        C  0.10921249  0.25729253  0.50256335    -0.03080
C420        C  0.10752842  0.31231509  0.50173136    -0.07530
C421        C  0.07222477  0.33848882  0.48285159     0.06000
C422        C  0.03910015  0.30858258  0.96366288    -0.02550
Br423      Br  0.99135531  0.34098791  0.93586638    -0.02250
H424        H  0.01590814  0.23085051  0.94907857     0.09910
H425        H  0.13257476  0.33482122  0.51690192     0.07930
Br426      Br  0.15335983  0.22676221  0.53308374    -0.02680
C427        C  0.09492801  0.74829838  0.96379792    -0.09310
C428        C  0.06511864  0.77393585  0.48592682     0.06880
C429        C  0.03659718  0.74311585  0.50763522    -0.03080
C430        C  0.03738905  0.68811459  0.50642986    -0.07530
C431        C  0.06768773  0.66268183  0.48464462     0.06000
C432        C  0.09651292  0.69305500  0.96308092    -0.02550
Br433      Br  0.13669543  0.66091956  0.93152284    -0.02250
H434        H  0.11719336  0.77129142  0.94711696     0.09910
H435        H  0.01577822  0.66500482  0.52336218     0.07930
Br436      Br  0.00017117  0.77306948  0.54148729    -0.02680
C437        C  0.04012735  0.53699602  0.84382319    -0.09310
C438        C  0.07818941  0.50768319  0.82855026     0.06880
C439        C  0.11456983  0.47827989  0.84540070    -0.03080
C440        C  0.11189876  0.47793710  0.87699569    -0.07530
C441        C  0.07287322  0.50597641  0.89235218     0.06000
C442        C  0.03692340  0.53611984  0.87545604    -0.02550
Br443      Br  0.98446098  0.57900924  0.89414852    -0.02330
H444        H  0.01222654  0.56005962  0.83105732     0.09910
H445        H  0.14020021  0.45514446  0.88962581     0.07930
Br446      Br  0.17031707  0.44010950  0.82646613    -0.02680
C447        C  0.02632303  0.51327258  0.62814972    -0.09310
C448        C  0.07366521  0.50254862  0.64288051     0.06880
C449        C  0.11864056  0.49042659  0.62583562    -0.03080
C450        C  0.11587106  0.48946054  0.59426575    -0.07530
C451        C  0.06839363  0.49999840  0.57906112     0.06000
C452        C  0.02304729  0.51186392  0.59656844    -0.02550
Br453      Br  0.95564330  0.52836880  0.57957192    -0.02250
H454        H  0.99158669  0.52261926  0.64134754     0.09910
H455        H  0.15120345  0.48026419  0.58160123     0.07930
Br456      Br  0.18493669  0.47637918  0.64481735    -0.02680
C457        C  0.32519408  0.53879059  0.71399208    -0.09310
C458        C  0.35087788  0.49920667  0.73046240     0.06880
C459        C  0.31994503  0.46323034  0.74818771    -0.03080
C460        C  0.26504602  0.46639719  0.74831736    -0.07530
C461        C  0.23943374  0.50608076  0.73212953     0.06000
C462        C  0.27003847  0.54279091  0.71488503    -0.02550
Br463      Br  0.23905907  0.59806719  0.69134656    -0.02250
H464        H  0.34814599  0.56705316  0.70055087     0.09910
H465        H  0.24219200  0.43854892  0.76211974     0.07930
Br466      Br  0.34933379  0.41217595  0.77551180    -0.02680
C467        C  0.53591764  0.18533890  0.78028582    -0.09310
C468        C  0.57045021  0.15834124  0.76112810     0.06880
C469        C  0.60525506  0.18759642  0.74211180    -0.03080
C470        C  0.60495903  0.24264267  0.74248145    -0.07530
C471        C  0.57061704  0.26989894  0.76161012     0.06000
C472        C  0.53606991  0.24071601  0.78087789    -0.02550
Br473      Br  0.49117016  0.27403693  0.80977511    -0.02250
H474        H  0.50959670  0.16324904  0.79537996     0.09910
H475        H  0.63100022  0.26441867  0.72707255     0.07930
Br476      Br  0.65156344  0.15490737  0.71358458    -0.02680
C477        C  0.54246021  0.74823105  0.78827141    -0.09310
C478        C  0.57960320  0.72189960  0.77048860     0.06880
C479        C  0.61417845  0.75223275  0.75156658    -0.03080
C480        C  0.61170468  0.80725205  0.75123551    -0.07530
C481        C  0.57414727  0.83344949  0.76859378     0.06000
C482        C  0.53934325  0.80345645  0.78739536    -0.02550
Br483      Br  0.48826123  0.83561995  0.81324712    -0.02250
H484        H  0.51544572  0.72572449  0.80274610     0.09910
H485        H  0.63812443  0.82970124  0.73635509     0.07930
Br486      Br  0.66201411  0.72161709  0.72300928    -0.02680
C487        C  0.88846904  0.46491677  0.75435741    -0.09310
C488        C  0.91449381  0.50284939  0.73610400     0.06880
C489        C  0.88431578  0.53808995  0.71870192    -0.03080
C490        C  0.82903905  0.53507335  0.72011313    -0.07530
C491        C  0.80300304  0.49752390  0.73877597     0.06000
C492        C  0.83347963  0.46243419  0.75622330    -0.02550
Br493      Br  0.80331030  0.41353198  0.78542488    -0.02250
H494        H  0.91114989  0.43813863  0.76816889     0.09910
H495        H  0.80630407  0.56226671  0.70663174     0.07930
Br496      Br  0.91606841  0.58948809  0.69165142    -0.02680
loop_ 
_geom_bond_atom_site_label_1 
_geom_bond_atom_site_label_2 
_geom_bond_distance 
_geom_bond_site_symmetry_2 
_ccdc_geom_bond_type 
C1            C2   1.419       .  A
C1            C6   1.422       .  A
C1          C243   1.481       .  S
C2            C3   1.399       .  A
C2            H7   1.083       .  S
C3            C4   1.399       .  A
C3           C21   1.496       .  S
C4            C5   1.403       .  A
C4            H8   1.067       .  S
C5            C6   1.402       .  A
C5           C12   1.501       .  S
C6            H9   1.083       .  S
C10          C11   1.427       .  A
C10          C15   1.427       .  A
C10         C230   1.485       .  S
C11          C12   1.402       .  A
C11          H16   1.083       .  S
C12          C13   1.391       .  A
C13          C14   1.395       .  A
C13          H17   1.060       .  S
C14          C15   1.403       .  A
C14          C30   1.504       .  S
C15          H18   1.082       .  S
C19          C20   1.420       .  A
C19          C24   1.422       .  A
C19         C223   1.482       .  S
C20          C21   1.398       .  A
C20          H25   1.083       .  S
C21          C22   1.399       .  A
C22          C23   1.402       .  A
C22          H26   1.068       .  S
C23          C24   1.403       .  A
C23          C32   1.501       .  S
C24          H27   1.082       .  S
C28          C29   1.426       .  A
C28          C33   1.426       .  A
C28         C210   1.485       .  S
C29          C30   1.402       .  A
C29          H34   1.082       .  S
C30          C31   1.397       .  A
C31          C32   1.392       .  A
C31          H35   1.060       .  S
C32          C33   1.401       .  A
C33          H36   1.083       .  S
O37         Cu45   2.011   1_554  S
O37          C47   1.279       .  A
O38        Cu293   2.003       .  S
O38          C48   1.277       .  A
O39         Cu45   2.006       .  S
O39          C49   1.277       .  A
O40         Cu45   2.005       .  S
O40          C50   1.278       .  A
O41         Cu46   2.008       .  S
O41          C50   1.277       .  A
O42         Cu46   2.003       .  S
O42          C49   1.277       .  A
O43        Cu294   2.008       .  S
O43          C48   1.278       .  A
O44         Cu46   2.013   1_554  S
O44          C47   1.277       .  A
Cu45        O286   2.003       .  S
Cu45        Cu46   2.371       .  S
Cu46        O291   2.008       .  S
C47         C203   1.490       .  S
C48         C193   1.477       .  S
C49         C183   1.470       .  S
C50         C173   1.475       .  S
O51         Cu59   2.018       .  S
O51          C61   1.279       .  A
O52         Cu59   2.007       .  S
O52          C62   1.277       .  A
O53         Cu59   2.006   1_655  S
O53          C63   1.277       .  A
O54         Cu59   2.017       .  S
O54          C64   1.278       .  A
O55         Cu60   1.996       .  S
O55          C64   1.277       .  A
O56         Cu60   2.004   1_655  S
O56          C63   1.278       .  A
O57         Cu60   2.004       .  S
O57          C62   1.276       .  A
O58         Cu60   2.005       .  S
O58          C61   1.277       .  A
Cu59        Cu60   2.375       .  S
C61         C190   1.474       .  S
C62         C200   1.465       .  S
C63         C240   1.475       .  S
C64         C213   1.478       .  S
O65        Cu321   2.004       .  S
O65          C75   1.278       .  A
O66         Cu73   2.009       .  S
O66          C76   1.277       .  A
O67         Cu73   2.012       .  S
O67          C77   1.278       .  A
O68         Cu73   2.006       .  S
O68          C78   1.277   1_565  A
O69         Cu74   2.010       .  S
O69          C78   1.278       .  A
O70         Cu74   2.005       .  S
O70          C77   1.277   1_545  A
O71         Cu74   2.012       .  S
O71          C76   1.278   1_545  A
O72        Cu322   2.007       .  S
O72          C75   1.278   1_545  A
Cu73        O313   2.004       .  S
Cu73        Cu74   2.374   1_565  S
Cu74        O320   2.007       .  S
C75         C160   1.477       .  S
C76         C153   1.472       .  S
C77         C133   1.475       .  S
C78         C140   1.474       .  S
O79         Cu87   2.005       .  S
O79          C89   1.277       .  A
O80         Cu87   2.006       .  S
O80          C90   1.277       .  A
O81         Cu87   2.007       .  S
O81          C91   1.278       .  A
O82         Cu87   2.000   1_545  S
O82          C92   1.277       .  A
O83         Cu88   2.015   1_545  S
O83          C92   1.278       .  A
O84         Cu88   2.010       .  S
O84          C91   1.277       .  A
O85         Cu88   2.005       .  S
O85          C90   1.278       .  A
O86         Cu88   2.016       .  S
O86          C89   1.278       .  A
Cu87        Cu88   2.373       .  S
C89         C163   1.474       .  S
C90         C150   1.481       .  S
C91         C233   1.478       .  S
C92         C220   1.475       .  S
C93          C94   1.424       .  A
C93          C98   1.421       .  A
C93         C180   1.481       .  S
C94          C95   1.403   1_556  A
C94          H99   1.083       .  S
C95          C96   1.397       .  A
C95         C104   1.502   1_554  S
C96          C97   1.397       .  A
C96         H100   1.062       .  S
C97          C98   1.399   1_554  A
C97         C122   1.499   1_455  S
C98         H101   1.083   1_455  S
C102        C103   1.424   1_545  A
C102        C107   1.423       .  A
C102        C143   1.484       .  S
C103        C352   1.402       .  A
C103        H108   1.081       .  S
C104        C351   1.402   1_556  A
C104        C353   1.399       .  A
C105        C106   1.398   1_565  A
C105        C352   1.399       .  A
C105        H357   1.064       .  S
C106        C107   1.400       .  A
C106        C361   1.499       .  S
C107        H110   1.083       .  S
H109        C353   1.064       .  S
C111        C112   1.423       .  A
C111        C116   1.425       .  A
C111        C170   1.484       .  S
C112        C113   1.400   1_556  A
C112        H117   1.083       .  S
C113        C114   1.396       .  A
C113        C354   1.499   1_554  S
C114        C115   1.398       .  A
C114        H118   1.062       .  S
C115        C116   1.402   1_554  A
C115        C124   1.503   1_454  S
C116        H119   1.082   1_455  S
C120        C121   1.424       .  A
C120        C125   1.427   1_565  A
C120        C130   1.485       .  S
C121        C122   1.400       .  A
C121        H126   1.083       .  S
C122        C123   1.394   1_564  A
C123        C124   1.396       .  A
C123        H127   1.062   1_655  S
C124        C125   1.403   1_556  A
C125        H128   1.081       .  S
C129        C134   1.396       .  A
C129        C378   1.407       .  A
C129        H136   1.084       .  S
C130        C131   1.411   1_565  A
C130        C377   1.407   1_554  A
C131        C132   1.402       .  A
C131       Br138   1.918       .  S
C132        C381   1.406   1_545  A
C132        H137   1.084       .  S
C133        C134   1.407       .  A
C133        C380   1.406   1_565  A
C134       Br135   1.921       .  S
C139        C144   1.402       .  A
C139        C388   1.405   1_565  A
C139        H146   1.084       .  S
C140        C141   1.407       .  A
C140        C387   1.405   1_545  A
C141        C142   1.396       .  A
C141       Br148   1.921       .  S
C142        C143   1.407       .  A
C142        H147   1.084       .  S
C143        C392   1.411   1_545  A
C144        C391   1.411   1_565  A
C144       Br145   1.918       .  S
C149        C150   1.405       .  A
C149        C154   1.398       .  A
C149        H156   1.084       .  S
C150        C151   1.415   1_565  A
C151        C152   1.400       .  A
C151       Br158   1.921       .  S
C152        C153   1.401   1_545  A
C152        H157   1.084       .  S
C153        C154   1.407       .  A
C154       Br155   1.919       .  S
C159        C160   1.405       .  A
C159        C164   1.399       .  A
C159        H166   1.084       .  S
C160        C161   1.412   1_565  A
C161        C162   1.399       .  A
C161       Br168   1.921       .  S
C162        C163   1.403   1_545  A
C162        H167   1.083       .  S
C163        C164   1.408       .  A
C164       Br165   1.919       .  S
C169        C174   1.402       .  A
C169        C418   1.405       .  A
C169        H176   1.083       .  S
C170        C171   1.417   1_556  A
C170        C417   1.405       .  A
C171        C172   1.395       .  A
C171       Br178   1.924       .  S
C172        C173   1.399   1_554  A
C172        H177   1.084       .  S
C173        C422   1.411       .  A
C174        C421   1.411       .  A
C174       Br175   1.920   1_455  S
C179        C184   1.401       .  A
C179        C428   1.404       .  A
C179        H186   1.083       .  S
C180        C181   1.416   1_556  A
C180        C427   1.404       .  A
C181        C182   1.395       .  A
C181       Br188   1.924       .  S
C182        C183   1.398   1_554  A
C182        H187   1.084       .  S
C183        C432   1.409       .  A
C184        C431   1.409       .  A
C184       Br185   1.919       .  S
C189        C190   1.403       .  A
C189        C194   1.400       .  A
C189        H196   1.084       .  S
C190        C191   1.408       .  A
C191        C192   1.398       .  A
C191       Br198   1.920       .  S
C192        C193   1.404       .  A
C192        H197   1.084       .  S
C193        C194   1.412       .  A
C194       Br195   1.921   1_455  S
C199        C200   1.398       .  A
C199        C204   1.400       .  A
C199        H206   1.084   1_455  S
C200        C201   1.403       .  A
C201        C202   1.398       .  A
C201       Br208   1.920       .  S
C202        C203   1.410       .  A
C202        H207   1.083       .  S
C203        C204   1.420       .  A
C204       Br205   1.921   1_455  S
C209        C210   1.406       .  A
C209        C214   1.403       .  A
C209        H216   1.083       .  S
C210        C211   1.416       .  A
C211        C212   1.394       .  A
C211       Br218   1.925       .  S
C212        C213   1.400       .  A
C212        H217   1.084       .  S
C213        C214   1.412       .  A
C214       Br215   1.919       .  S
C219        C220   1.406       .  A
C219        C224   1.403       .  A
C219        H226   1.083       .  S
C220        C221   1.408       .  A
C221        C222   1.394       .  A
C221       Br228   1.922       .  S
C222        C223   1.405       .  A
C222        H227   1.084       .  S
C223        C224   1.410       .  A
C224       Br225   1.918       .  S
C229        C230   1.405       .  A
C229        C234   1.403       .  A
C229        H236   1.083       .  S
C230        C231   1.416       .  A
C231        C232   1.396       .  A
C231       Br238   1.924       .  S
C232        C233   1.400       .  A
C232        H237   1.084       .  S
C233        C234   1.412       .  A
C234       Br235   1.920       .  S
C239        C240   1.400       .  A
C239        C244   1.394       .  A
C239        H246   1.084       .  S
C240        C241   1.412       .  A
C241        C242   1.401       .  A
C241       Br248   1.919       .  S
C242        C243   1.404       .  A
C242        H247   1.083       .  S
C243        C244   1.415       .  A
C244       Br245   1.924       .  S
C249        C250   1.419       .  A
C249        C254   1.422       .  A
C249        C491   1.481       .  S
C250        C251   1.399       .  A
C250        H255   1.083       .  S
C251        C252   1.399       .  A
C251        C269   1.496       .  S
C252        C253   1.403       .  A
C252        H256   1.067       .  S
C253        C254   1.402       .  A
C253        C260   1.501       .  S
C254        H257   1.083       .  S
C258        C259   1.427       .  A
C258        C263   1.427       .  A
C258        C478   1.485       .  S
C259        C260   1.402       .  A
C259        H264   1.083       .  S
C260        C261   1.391       .  A
C261        C262   1.395       .  A
C261        H265   1.060       .  S
C262        C263   1.403       .  A
C262        C278   1.504       .  S
C263        H266   1.082       .  S
C267        C268   1.420       .  A
C267        C272   1.422       .  A
C267        C471   1.482       .  S
C268        C269   1.398       .  A
C268        H273   1.083       .  S
C269        C270   1.399       .  A
C270        C271   1.402       .  A
C270        H274   1.068       .  S
C271        C272   1.403       .  A
C271        C280   1.501       .  S
C272        H275   1.082       .  S
C276        C277   1.426       .  A
C276        C281   1.426       .  A
C276        C458   1.485       .  S
C277        C278   1.402       .  A
C277        H282   1.082       .  S
C278        C279   1.397       .  A
C279        C280   1.392       .  A
C279        H283   1.060       .  S
C280        C281   1.401       .  A
C281        H284   1.083       .  S
O285       Cu293   2.011       .  S
O285        C295   1.279       .  A
O286        C296   1.277       .  A
O287       Cu293   2.006       .  S
O287        C297   1.277       .  A
O288       Cu293   2.005       .  S
O288        C298   1.278       .  A
O289       Cu294   2.008       .  S
O289        C298   1.277       .  A
O290       Cu294   2.003       .  S
O290        C297   1.277       .  A
O291        C296   1.278       .  A
O292       Cu294   2.013       .  S
O292        C295   1.277       .  A
Cu293      Cu294   2.371       .  S
C295        C451   1.490       .  S
C296        C441   1.477       .  S
C297        C431   1.470       .  S
C298        C421   1.475       .  S
O299       Cu307   2.018       .  S
O299        C309   1.279       .  A
O300       Cu307   2.007       .  S
O300        C310   1.277       .  A
O301       Cu307   2.006   1_655  S
O301        C311   1.277       .  A
O302       Cu307   2.017       .  S
O302        C312   1.278       .  A
O303       Cu308   1.996       .  S
O303        C312   1.277       .  A
O304       Cu308   2.004   1_655  S
O304        C311   1.278       .  A
O305       Cu308   2.004       .  S
O305        C310   1.276       .  A
O306       Cu308   2.005       .  S
O306        C309   1.277       .  A
Cu307      Cu308   2.375       .  S
C309        C438   1.474       .  S
C310        C448   1.465       .  S
C311        C488   1.475       .  S
C312        C461   1.478       .  S
O313        C323   1.278       .  A
O314       Cu321   2.009   1_556  S
O314        C324   1.277       .  A
O315       Cu321   2.012       .  S
O315        C325   1.278       .  A
O316       Cu321   2.006       .  S
O316        C326   1.277   1_565  A
O317       Cu322   2.010       .  S
O317        C326   1.278       .  A
O318       Cu322   2.005       .  S
O318        C325   1.277   1_545  A
O319       Cu322   2.012   1_556  S
O319        C324   1.278   1_545  A
O320        C323   1.278   1_545  A
Cu321      Cu322   2.374   1_565  S
C323        C408   1.477       .  S
C324        C401   1.472       .  S
C325        C381   1.475       .  S
C326        C388   1.474       .  S
O327       Cu335   2.005       .  S
O327        C337   1.277       .  A
O328       Cu335   2.006       .  S
O328        C338   1.277       .  A
O329       Cu335   2.007       .  S
O329        C339   1.278       .  A
O330       Cu335   2.000   1_545  S
O330        C340   1.277       .  A
O331       Cu336   2.015   1_545  S
O331        C340   1.278       .  A
O332       Cu336   2.010       .  S
O332        C339   1.277       .  A
O333       Cu336   2.005       .  S
O333        C338   1.278       .  A
O334       Cu336   2.016       .  S
O334        C337   1.278       .  A
Cu335      Cu336   2.373       .  S
C337        C411   1.474       .  S
C338        C398   1.481       .  S
C339        C481   1.478       .  S
C340        C468   1.475       .  S
C341        C342   1.424       .  A
C341        C346   1.421       .  A
C341        C428   1.481       .  S
C342        C343   1.403       .  A
C342        H347   1.083       .  S
C343        C344   1.397       .  A
C343        C352   1.502       .  S
C344        C345   1.397       .  A
C344        H348   1.062       .  S
C345        C346   1.399       .  A
C345        C370   1.499   1_455  S
C346        H349   1.083   1_455  S
C350        C351   1.424   1_545  A
C350        C355   1.423       .  A
C350        C391   1.484       .  S
C351        H356   1.081       .  S
C353        C354   1.398   1_565  A
C354        C355   1.400   1_556  A
C355        H358   1.083       .  S
C359        C360   1.423       .  A
C359        C364   1.425       .  A
C359        C418   1.484       .  S
C360        C361   1.400       .  A
C360        H365   1.083       .  S
C361        C362   1.396       .  A
C362        C363   1.398       .  A
C362        H366   1.062       .  S
C363        C364   1.402       .  A
C363        C372   1.503   1_455  S
C364        H367   1.082   1_455  S
C368        C369   1.424       .  A
C368        C373   1.427   1_565  A
C368        C378   1.485       .  S
C369        C370   1.400       .  A
C369        H374   1.083       .  S
C370        C371   1.394   1_565  A
C371        C372   1.396       .  A
C371        H375   1.062   1_655  S
C372        C373   1.403       .  A
C373        H376   1.081       .  S
C377        C382   1.396       .  A
C377        H384   1.084       .  S
C378        C379   1.411   1_565  A
C379        C380   1.402       .  A
C379       Br386   1.918       .  S
C380        H385   1.084       .  S
C381        C382   1.407   1_554  A
C382       Br383   1.921       .  S
C387        C392   1.402       .  A
C387        H394   1.084       .  S
C388        C389   1.407   1_554  A
C389        C390   1.396       .  A
C389       Br396   1.921       .  S
C390        C391   1.407   1_556  A
C390        H395   1.084       .  S
C392       Br393   1.918       .  S
C397        C398   1.405       .  A
C397        C402   1.398       .  A
C397        H404   1.084       .  S
C398        C399   1.415   1_565  A
C399        C400   1.400       .  A
C399       Br406   1.921       .  S
C400        C401   1.401   1_545  A
C400        H405   1.084       .  S
C401        C402   1.407       .  A
C402       Br403   1.919       .  S
C407        C408   1.405       .  A
C407        C412   1.399       .  A
C407        H414   1.084       .  S
C408        C409   1.412   1_565  A
C409        C410   1.399       .  A
C409       Br416   1.921       .  S
C410        C411   1.403   1_545  A
C410        H415   1.083       .  S
C411        C412   1.408       .  A
C412       Br413   1.919       .  S
C417        C422   1.402       .  A
C417        H424   1.083       .  S
C418        C419   1.417       .  A
C419        C420   1.395       .  A
C419       Br426   1.924       .  S
C420        C421   1.399       .  A
C420        H425   1.084       .  S
C422       Br423   1.920   1_455  S
C427        C432   1.401       .  A
C427        H434   1.083       .  S
C428        C429   1.416       .  A
C429        C430   1.395       .  A
C429       Br436   1.924       .  S
C430        C431   1.398       .  A
C430        H435   1.084       .  S
C432       Br433   1.919       .  S
C437        C438   1.403       .  A
C437        C442   1.400       .  A
C437        H444   1.084       .  S
C438        C439   1.408       .  A
C439        C440   1.398       .  A
C439       Br446   1.920       .  S
C440        C441   1.404       .  A
C440        H445   1.084       .  S
C441        C442   1.412       .  A
C442       Br443   1.921   1_455  S
C447        C448   1.398       .  A
C447        C452   1.400       .  A
C447        H454   1.084   1_455  S
C448        C449   1.403       .  A
C449        C450   1.398       .  A
C449       Br456   1.920       .  S
C450        C451   1.410       .  A
C450        H455   1.083       .  S
C451        C452   1.420       .  A
C452       Br453   1.921   1_455  S
C457        C458   1.406       .  A
C457        C462   1.403       .  A
C457        H464   1.083       .  S
C458        C459   1.416       .  A
C459        C460   1.394       .  A
C459       Br466   1.925       .  S
C460        C461   1.400       .  A
C460        H465   1.084       .  S
C461        C462   1.412       .  A
C462       Br463   1.919       .  S
C467        C468   1.406       .  A
C467        C472   1.403       .  A
C467        H474   1.083       .  S
C468        C469   1.408       .  A
C469        C470   1.394       .  A
C469       Br476   1.922       .  S
C470        C471   1.405       .  A
C470        H475   1.084       .  S
C471        C472   1.410       .  A
C472       Br473   1.918       .  S
C477        C478   1.405       .  A
C477        C482   1.403       .  A
C477        H484   1.083       .  S
C478        C479   1.416       .  A
C479        C480   1.396       .  A
C479       Br486   1.924       .  S
C480        C481   1.400       .  A
C480        H485   1.084       .  S
C481        C482   1.412       .  A
C482       Br483   1.920       .  S
C487        C488   1.400       .  A
C487        C492   1.394       .  A
C487        H494   1.084       .  S
C488        C489   1.412       .  A
C489        C490   1.401       .  A
C489       Br496   1.919       .  S
C490        C491   1.404       .  A
C490        H495   1.083       .  S
C491        C492   1.415       .  A
C492       Br493   1.924       .  S
