geometry optimzed in LAMMPS
_audit_creation_date              2020-12-01 
_audit_creation_method            'lammps2cif' 
_symmetry_space_group_name_H-M    'P1' 
_symmetry_Int_Tables_number       1 
_symmetry_cell_setting            triclinic 
loop_ 
_symmetry_equiv_pos_as_xyz 
  x,y,z 
_cell_length_a                    35.38054133 
_cell_length_b                    35.41126450745494 
_cell_length_c                    35.97967983377059 
_cell_angle_alpha                 89.99917178118363 
_cell_angle_beta                  90.00037425719638 
_cell_angle_gamma                 119.9981562054834 
loop_ 
_atom_site_label 
_atom_site_type_symbol 
_atom_site_fract_x 
_atom_site_fract_y 
_atom_site_fract_z 
_atom_site_charge 
C1          C  0.48763924  0.71590518  0.09837269     0.81900
N2          N  0.48862357  0.71636054  0.13610940    -0.76400
C3          C  0.48791265  0.74918368  0.15503269     0.84400
N4          N  0.48623989  0.78152318  0.13615168    -0.76300
C5          C  0.48523988  0.78098224  0.09841809     0.84400
N6          N  0.48594613  0.74819696  0.07957944    -0.78100
C7          C  0.48763695  0.71590966  0.32519819     0.81900
N8          N  0.48594569  0.74820361  0.34398900    -0.76400
C9          C  0.48524145  0.78098869  0.32514777     0.84400
N10         N  0.48624146  0.78152805  0.28741421    -0.76300
C11         C  0.48791232  0.74918670  0.26853568     0.84400
N12         N  0.48862140  0.71636347  0.28746154    -0.78100
C13         C  0.22236628  0.77876584  0.32515581     0.81900
N14         N  0.22174206  0.77954048  0.28743735    -0.76400
C15         C  0.18895522  0.74599873  0.26848703     0.84400
N16         N  0.15684294  0.71172708  0.28730507    -0.76300
C17         C  0.15757146  0.71103430  0.32501873     0.84400
N18         N  0.19030726  0.74453024  0.34390090    -0.78100
C19         C  0.22236497  0.77876054  0.09841383     0.81900
N20         N  0.22174154  0.77953687  0.13613186    -0.76400
C21         C  0.18895377  0.74599569  0.15508371     0.84400
N22         N  0.15684118  0.71172450  0.13626730    -0.76300
C23         C  0.15756906  0.71103026  0.09855329     0.84400
N24         N  0.19030491  0.74452474  0.07966989    -0.78100
C25         C  0.16018767  0.44962536  0.09844358     0.81900
N26         N  0.19424815  0.45144225  0.07963885    -0.76400
C27         C  0.22760704  0.45180155  0.09845794     0.84400
N28         N  0.22694876  0.45034757  0.13617643    -0.76300
C29         C  0.19285660  0.44854877  0.15506059     0.84400
N30         N  0.15945418  0.44818826  0.13616489    -0.78100
C31         C  0.16018611  0.44962755  0.32512220     0.81900
N32         N  0.15945302  0.44818956  0.28740159    -0.76400
C33         C  0.19285613  0.44855010  0.26850675     0.84400
N34         N  0.22694809  0.45034977  0.28739196    -0.76300
C35         C  0.22760613  0.45180464  0.32511067     0.84400
N36         N  0.19424686  0.45144534  0.34392842    -0.78100
C37         C  0.75494704  0.24632157  0.32515753     0.81900
N38         N  0.75606576  0.24542089  0.28745977    -0.76400
C39         C  0.72278237  0.21239730  0.26848026     0.84400
N40         N  0.68839818  0.18034288  0.28724850    -0.76300
C41         C  0.68734835  0.18133575  0.32494401     0.84400
N42         N  0.72060066  0.21430936  0.34385471    -0.78100
C43         C  0.75494492  0.24631740  0.09840793     0.81900
N44         N  0.75606419  0.24541798  0.13610603    -0.76400
C45         C  0.72278148  0.21239495  0.15508680     0.84400
N46         N  0.68839745  0.18033920  0.13631973    -0.76300
C47         C  0.68734697  0.18133066  0.09862434     0.84400
N48         N  0.72059891  0.21430405  0.07971218    -0.78100
C49         C  0.69318243  0.51564368  0.09845479     0.81900
N50         N  0.69399397  0.51734708  0.13616527    -0.76400
C51         C  0.72686009  0.51668542  0.15509267     0.84400
N52         N  0.75884197  0.51427606  0.13626463    -0.76300
C53         C  0.75792318  0.51254501  0.09856280     0.84400
N54         N  0.72511662  0.51322223  0.07970077    -0.78100
C55         C  0.69318140  0.51564703  0.32511434     0.81900
N56         N  0.69399320  0.51734969  0.28740445    -0.76400
C57         C  0.72685960  0.51668667  0.26847817     0.84400
N58         N  0.75884035  0.51427690  0.28730706    -0.76300
C59         C  0.75792090  0.51254665  0.32500957     0.84400
N60         N  0.72511509  0.51322526  0.34387003    -0.78100
C61         C  0.42421048  0.18405584  0.32506018     0.81900
N62         N  0.42248115  0.18322200  0.28735334    -0.76400
C63         C  0.42347786  0.21691018  0.26847705     0.84400
N64         N  0.42624661  0.25140317  0.28735513    -0.76300
C65         C  0.42801098  0.25216217  0.32505837     0.84400
N66         N  0.42699247  0.21851202  0.34386765    -0.78100
C67         C  0.42420881  0.18404935  0.09851059     0.81900
N68         N  0.42699248  0.21850509  0.07970093    -0.76400
C69         C  0.42801258  0.25215699  0.09850790     0.84400
N70         N  0.42624822  0.25139989  0.13621095    -0.76300
C71         C  0.42347780  0.21690677  0.15509136     0.84400
N72         N  0.42247943  0.18321714  0.13621777    -0.78100
N73         N  0.48007159  0.55473551  0.39223939    -0.04400
N74         N  0.46915765  0.57578263  0.36820519    -0.56600
N75         N  0.55734848  0.53193975  0.41787247    -0.04100
N76         N  0.59762849  0.54024266  0.41174650    -0.58700
N77         N  0.53079031  0.50540091  0.39227065    -0.03700
N78         N  0.55226282  0.49504197  0.36820856    -0.56500
N79         N  0.50636119  0.58151264  0.41785482    -0.03400
N80         N  0.51393505  0.62151800  0.41175796    -0.59000
C81         C  0.49035141  0.61717133  0.38084408     0.97700
C82         C  0.59367713  0.51684053  0.38082575     0.97500
N83         N  0.53079091  0.50539661  0.03129754    -0.04600
N84         N  0.55226318  0.49503645  0.05535889    -0.57100
N85         N  0.50636193  0.58151009  0.00571633    -0.02700
N86         N  0.51393666  0.62151513  0.01181473    -0.58400
N87         N  0.48007248  0.55473144  0.03133160    -0.04600
N88         N  0.46915953  0.57577756  0.05536717    -0.57400
N89         N  0.55734927  0.53193716  0.00569597    -0.02400
N90         N  0.59762867  0.54023976  0.01182156    -0.58500
Mn91       Mn  0.53323329  0.55811575  0.46178492     1.18400
C92         C  0.59367853  0.51683613  0.04274191     0.99800
C93         C  0.49035405  0.61716718  0.04272892     1.00500
N94         N  0.44264989  0.41651158  0.39232203    -0.04700
N95         N  0.45326325  0.39524890  0.36825009    -0.61000
N96         N  0.36541002  0.43943648  0.41791014    -0.03500
N97         N  0.32510675  0.43104736  0.41180727    -0.61700
N98         N  0.39191255  0.46589849  0.39224768    -0.04200
N99         N  0.37035790  0.47613278  0.36815573    -0.61200
N100        N  0.41632308  0.38985908  0.41797446    -0.03100
N101        N  0.40842187  0.34975875  0.41190002    -0.61900
Mn102      Mn  0.46136612  0.48563679  0.39121429     1.10700
C103        C  0.43188415  0.35388876  0.38098149     1.01000
C104        C  0.32896342  0.45434995  0.38085178     1.01100
N105        N  0.39191302  0.46589426  0.03132211    -0.04200
N106        N  0.37035855  0.47612749  0.05541455    -0.59600
N107        N  0.41632383  0.38985666  0.00559221    -0.04400
N108        N  0.40842339  0.34975586  0.01166502    -0.56300
N109        N  0.44265040  0.41650741  0.03124453    -0.04800
N110        N  0.45326510  0.39524363  0.05531543    -0.59100
N111        N  0.36541065  0.43943392  0.00565930    -0.03800
N112        N  0.32510715  0.43104469  0.01176253    -0.56300
Mn113      Mn  0.46136671  0.48563261  0.03235461     1.20200
Mn114      Mn  0.38952754  0.41331348  0.46178407     1.10100
Cl115      Cl  0.46138023  0.48568779  0.46178444    -0.84300
C116        C  0.32896441  0.45434572  0.04271838     0.98100
C117        C  0.43188631  0.35388442  0.04258272     0.97900
N118        N  0.00734079  0.54701842  0.03132057    -0.04400
N119        N  0.03913184  0.56835540  0.05545519    -0.56600
N120        N  0.90715392  0.52355163  0.00560605    -0.04100
N121        N  0.87523912  0.53190121  0.01175220    -0.58700
N122        N  0.90724011  0.49710022  0.03124532    -0.03700
N123        N  0.87548446  0.48684655  0.05538053    -0.56500
N124        N  0.00762681  0.57362309  0.00565070    -0.03400
N125        N  0.03971211  0.61378331  0.01179023    -0.59000
C126        C  0.05900643  0.60972203  0.04276641     0.97700
C127        C  0.85583286  0.50858148  0.04270360     0.97500
N128        N  0.90724072  0.49710405  0.39232499    -0.04600
N129        N  0.87548358  0.48685030  0.36819028    -0.57100
N130        N  0.00762716  0.57362518  0.41792034    -0.02700
N131        N  0.03971341  0.61378567  0.41178233    -0.58400
N132        N  0.00734136  0.54702213  0.39224971    -0.04600
N133        N  0.03913304  0.56836007  0.36811625    -0.57400
N134        N  0.90715427  0.52355361  0.41796473    -0.02400
N135        N  0.87523805  0.53190252  0.41181977    -0.58500
Mn136      Mn  0.95740596  0.54992855  0.46178542     1.18400
C137        C  0.85583235  0.50858384  0.38086855     0.99800
C138        C  0.05900873  0.60972564  0.38080569     1.00500
N139        N  0.90719824  0.40857483  0.03126423    -0.04700
N140        N  0.87529546  0.38726592  0.05530682    -0.61000
N141        N  0.00760866  0.43224384  0.00572027    -0.03500
N142        N  0.03986265  0.42436892  0.01184771    -0.61700
N143        N  0.00727724  0.45859260  0.03134464    -0.04200
N144        N  0.03917121  0.46925857  0.05541117    -0.61200
N145        N  0.90702838  0.38194896  0.00566661    -0.03100
N146        N  0.87487805  0.34179525  0.01176780    -0.61900
Mn147      Mn  0.95724153  0.47780081  0.03234596     1.10700
C148        C  0.85547067  0.34588481  0.04266616     1.01000
C149        C  0.05915675  0.44784223  0.04278484     1.01100
N150        N  0.00727744  0.45859605  0.39222286    -0.04200
N151        N  0.03917105  0.46926270  0.36815564    -0.59600
N152        N  0.90702850  0.38195092  0.41789981    -0.03500
N153        N  0.87487925  0.34179783  0.41179747    -0.56300
N154        N  0.90719851  0.40857851  0.39230278    -0.04800
N155        N  0.87529674  0.38727083  0.36825958    -0.59100
N156        N  0.00760868  0.43224624  0.41784628    -0.03800
N157        N  0.03986220  0.42437040  0.41171803    -0.56300
Mn158      Mn  0.95724182  0.47780459  0.39122274     1.20200
Mn159      Mn  0.95733575  0.40572035  0.46178328     1.10100
Cl160      Cl  0.95730510  0.47780544  0.46178435    -0.84300
C161        C  0.05915587  0.44784533  0.38078071     0.98100
C162        C  0.85547216  0.34588850  0.38089898     0.97900
N163        N  0.47247008  0.93184069  0.03131309    -0.04400
N164        N  0.46194574  0.89998224  0.05537011    -0.56600
N165        N  0.54910626  0.03207703  0.00565014    -0.04100
N166        N  0.58936502  0.06398525  0.01184129    -0.58700
N167        N  0.52251502  0.03191442  0.03129955    -0.03700
N168        N  0.54398097  0.06361063  0.05548101    -0.56500
N169        N  0.49886057  0.93161661  0.00565874    -0.03400
N170        N  0.50690983  0.89949948  0.01174027    -0.59000
C171        C  0.48347639  0.88012836  0.04267201     0.97700
C172        C  0.58540543  0.08331174  0.04282890     0.97500
N173        N  0.52251580  0.03191934  0.39226997    -0.04600
N174        N  0.54398195  0.06361711  0.36808902    -0.57100
N175        N  0.49886131  0.93161998  0.41790729    -0.02700
N176        N  0.50691161  0.89950394  0.41182414    -0.58400
N177        N  0.47247128  0.93184589  0.39225352    -0.04600
N178        N  0.46194778  0.89998944  0.36819478    -0.57400
N179        N  0.54910680  0.03208029  0.41791877    -0.02400
N180        N  0.58936576  0.06398885  0.41172821    -0.58500
Mn181      Mn  0.52531989  0.98185005  0.46178387     1.18400
C182        C  0.58540617  0.08331718  0.38074083     0.99800
C183        C  0.48347919  0.88013545  0.38089199     1.00500
N184        N  0.43377531  0.03171288  0.03129597    -0.04700
N185        N  0.44417306  0.06346433  0.05542572    -0.61000
N186        N  0.35722326  0.93141804  0.00569250    -0.03500
N187        N  0.31709347  0.89917367  0.01179888    -0.61700
N188        N  0.38393162  0.93175706  0.03131308    -0.04200
N189        N  0.36271611  0.89987285  0.05536685    -0.61200
N190        N  0.40727902  0.03185537  0.00569799    -0.03100
N191        N  0.39904888  0.06383460  0.01189041    -0.61900
Mn192      Mn  0.45318418  0.98183322  0.03235245     1.10700
C193        C  0.42244965  0.08316057  0.04284695     1.01000
C194        C  0.32130222  0.87989542  0.04272584     1.01100
N195        N  0.38393235  0.93176182  0.39225479    -0.04200
N196        N  0.36271701  0.89987929  0.36820076    -0.59600
N197        N  0.40727948  0.03185887  0.41787321    -0.03500
N198        N  0.39905039  0.06383863  0.41168237    -0.56300
N199        N  0.43377643  0.03171786  0.39227470    -0.04800
N200        N  0.44417475  0.06347103  0.36814668    -0.59100
N201        N  0.35722362  0.93142125  0.41787590    -0.03800
N202        N  0.31709427  0.89917728  0.41176939    -0.56300
Mn203      Mn  0.45318495  0.98183821  0.39121624     1.20200
Mn204      Mn  0.38087888  0.98163568  0.46178490     1.10100
Cl205      Cl  0.45314603  0.98180937  0.46178437    -0.84300
C206        C  0.32130297  0.87990079  0.38084143     0.98100
C207        C  0.42245217  0.08316748  0.38072563     0.97900
C208        C  0.43148240  0.31807648  0.06149604    -0.11600
C209        C  0.43035362  0.28818782  0.07840116    -0.13100
C210        C  0.42257764  0.11895326  0.06154486    -0.11600
C211        C  0.42317749  0.14861337  0.07841454    -0.13100
C212        C  0.42230780  0.21638205  0.22855224    -0.11600
C213        C  0.42230771  0.21638098  0.19501631    -0.13100
C214        C  0.43035097  0.28819329  0.34516253    -0.11600
C215        C  0.43147968  0.31808187  0.36206728    -0.13100
C216        C  0.42258021  0.11896087  0.36202936    -0.11600
C217        C  0.42318016  0.14862163  0.34515871    -0.13100
C218        C  0.65861858  0.51637813  0.34527336    -0.11600
C219        C  0.62945790  0.51681776  0.36216433    -0.13100
C220        C  0.79179731  0.51044642  0.34505715    -0.11600
C221        C  0.82057359  0.50929805  0.36194726    -0.13100
C222        C  0.65861992  0.51637368  0.07829522    -0.11600
C223        C  0.62945826  0.51681308  0.06140313    -0.13100
C224        C  0.72742911  0.51783298  0.19501722    -0.11600
C225        C  0.72742871  0.51783330  0.22855348    -0.13100
C226        C  0.79179964  0.51044481  0.07851612    -0.11600
C227        C  0.82057604  0.50929610  0.06162580    -0.13100
C228        C  0.62138058  0.11856955  0.06178492    -0.11600
C229        C  0.65133493  0.14737600  0.07863831    -0.13100
C230        C  0.81960249  0.31021551  0.06133803    -0.11600
C231        C  0.79004392  0.28101217  0.07821035    -0.13100
C232        C  0.62138169  0.11857546  0.36178517    -0.11600
C233        C  0.65133606  0.14738186  0.34493116    -0.13100
C234        C  0.72353982  0.21180250  0.22855373    -0.11600
C235        C  0.72353953  0.21180175  0.19501344    -0.13100
C236        C  0.81960488  0.31022005  0.36222622    -0.11600
C237        C  0.79004657  0.28101692  0.34535418    -0.13100
C238        C  0.29299736  0.45388482  0.36207793    -0.11600
C239        C  0.26325874  0.45320773  0.34521845    -0.13100
C240        C  0.09517478  0.44829976  0.36212197    -0.11600
C241        C  0.12489095  0.44894890  0.34524705    -0.13100
C242        C  0.19237824  0.44755164  0.22855784    -0.11600
C243        C  0.19237848  0.44755131  0.19500969    -0.13100
C244        C  0.26326003  0.45320387  0.07835092    -0.11600
C245        C  0.29299805  0.45388062  0.06149245    -0.13100
C246        C  0.12489280  0.44894643  0.07831822    -0.11600
C247        C  0.09517617  0.44829707  0.06144300    -0.13100
C248        C  0.12347645  0.67524741  0.07851338    -0.11600
C249        C  0.09449215  0.64551518  0.06163561    -0.13100
C250        C  0.25676660  0.81413663  0.07823330    -0.11600
C251        C  0.28575215  0.84387877  0.06135319    -0.13100
C252        C  0.09449492  0.64551937  0.36193818    -0.11600
C253        C  0.12347995  0.67525216  0.34506003    -0.13100
C254        C  0.18850575  0.74652192  0.22855437    -0.11600
C255        C  0.18850553  0.74652123  0.19501647    -0.13100
C256        C  0.25676770  0.81414261  0.34533473    -0.11600
C257        C  0.28575339  0.84388506  0.36221439    -0.13100
C258        C  0.48958581  0.65258382  0.36221770    -0.11600
C259        C  0.48866814  0.68150343  0.34535295    -0.13100
C260        C  0.48361044  0.84448890  0.36212098    -0.11600
C261        C  0.48404632  0.81533053  0.34524965    -0.13100
C262        C  0.48958892  0.65257899  0.06135656    -0.11600
C263        C  0.48867139  0.68149836  0.07822030    -0.13100
C264        C  0.48360732  0.84448091  0.06144174    -0.11600
C265        C  0.48404351  0.81532214  0.07831386    -0.13100
C266        C  0.48861960  0.74953687  0.22856353    -0.11600
C267        C  0.48861976  0.74953592  0.19500484    -0.13100
C268        C  0.48763927  0.71590516  0.59837266     0.81900
N269        N  0.48862367  0.71636065  0.63610943    -0.76400
C270        C  0.48791270  0.74918357  0.65503268     0.84400
N271        N  0.48623989  0.78152325  0.63615159    -0.76300
C272        C  0.48523995  0.78098212  0.59841820     0.84400
N273        N  0.48594614  0.74819697  0.57957940    -0.78100
C274        C  0.48763690  0.71590967  0.82519826     0.81900
N275        N  0.48594562  0.74820348  0.84398897    -0.76400
C276        C  0.48524128  0.78098876  0.82514768     0.84400
N277        N  0.48624139  0.78152805  0.78741431    -0.76300
C278        C  0.48791230  0.74918654  0.76853563     0.84400
N279        N  0.48862138  0.71636350  0.78746143    -0.78100
C280        C  0.22236625  0.77876586  0.82515578     0.81900
N281        N  0.22174215  0.77954065  0.78743737    -0.76400
C282        C  0.18895503  0.74599862  0.76848708     0.84400
N283        N  0.15684295  0.71172718  0.78730501    -0.76300
C284        C  0.15757141  0.71103436  0.82501876     0.84400
N285        N  0.19030722  0.74453029  0.84390087    -0.78100
C286        C  0.22236504  0.77876068  0.59841358     0.81900
N287        N  0.22174142  0.77953673  0.63613197    -0.76400
C288        C  0.18895412  0.74599616  0.65508384     0.84400
N289        N  0.15684115  0.71172442  0.63626712    -0.76300
C290        C  0.15756878  0.71103002  0.59855344     0.84400
N291        N  0.19030502  0.74452476  0.57966989    -0.78100
C292        C  0.16018769  0.44962532  0.59844352     0.81900
N293        N  0.19424810  0.45144227  0.57963885    -0.76400
C294        C  0.22760737  0.45180154  0.59845810     0.84400
N295        N  0.22694899  0.45034773  0.63617631    -0.76300
C296        C  0.19285616  0.44854888  0.65506069     0.84400
N297        N  0.15945441  0.44818837  0.63616495    -0.78100
C298        C  0.16018614  0.44962763  0.82512221     0.81900
N299        N  0.15945320  0.44818971  0.78740160    -0.76400
C300        C  0.19285588  0.44855018  0.76850676     0.84400
N301        N  0.22694822  0.45034994  0.78739197    -0.76300
C302        C  0.22760606  0.45180462  0.82511064     0.84400
N303        N  0.19424691  0.45144538  0.84392847    -0.78100
C304        C  0.75494697  0.24632155  0.82515766     0.81900
N305        N  0.75606579  0.24542088  0.78745965    -0.76400
C306        C  0.72278247  0.21239753  0.76848022     0.84400
N307        N  0.68839827  0.18034288  0.78724867    -0.76300
C308        C  0.68734818  0.18133564  0.82494385     0.84400
N309        N  0.72060087  0.21430945  0.84385473    -0.78100
C310        C  0.75494497  0.24631732  0.59840793     0.81900
N311        N  0.75606427  0.24541814  0.63610604    -0.76400
C312        C  0.72278126  0.21239467  0.65508678     0.84400
N313        N  0.68839756  0.18033934  0.63631971    -0.76300
C314        C  0.68734701  0.18133062  0.59862436     0.84400
N315        N  0.72059895  0.21430405  0.57971215    -0.78100
C316        C  0.69318245  0.51564355  0.59845476     0.81900
N317        N  0.69399394  0.51734703  0.63616529    -0.76400
C318        C  0.72686008  0.51668538  0.65509268     0.84400
N319        N  0.75884194  0.51427598  0.63626458    -0.76300
C320        C  0.75792334  0.51254493  0.59856285     0.84400
N321        N  0.72511653  0.51322220  0.57970078    -0.78100
C322        C  0.69318131  0.51564700  0.82511438     0.81900
N323        N  0.69399314  0.51734968  0.78740443    -0.76400
C324        C  0.72685974  0.51668668  0.76847810     0.84400
N325        N  0.75884028  0.51427694  0.78730709    -0.76300
C326        C  0.75792104  0.51254663  0.82500950     0.84400
N327        N  0.72511498  0.51322520  0.84387002    -0.78100
C328        C  0.42421041  0.18405583  0.82506012     0.81900
N329        N  0.42248107  0.18322198  0.78735340    -0.76400
C330        C  0.42347788  0.21691019  0.76847703     0.84400
N331        N  0.42624655  0.25140318  0.78735509    -0.76300
C332        C  0.42801093  0.25216206  0.82505844     0.84400
N333        N  0.42699237  0.21851206  0.84386765    -0.78100
C334        C  0.42420883  0.18404936  0.59851051     0.81900
N335        N  0.42699239  0.21850515  0.57970095    -0.76400
C336        C  0.42801258  0.25215676  0.59850791     0.84400
N337        N  0.42624814  0.25139993  0.63621092    -0.76300
C338        C  0.42347780  0.21690679  0.65509131     0.84400
N339        N  0.42247939  0.18321717  0.63621784    -0.78100
N340        N  0.48007154  0.55473555  0.89223930    -0.04400
N341        N  0.46915765  0.57578253  0.86820522    -0.56600
N342        N  0.55734853  0.53193969  0.91787235    -0.04100
N343        N  0.59762838  0.54024265  0.91174660    -0.58700
N344        N  0.53079032  0.50540106  0.89227077    -0.03700
N345        N  0.55226278  0.49504189  0.86820854    -0.56500
N346        N  0.50636123  0.58151265  0.91785494    -0.03400
N347        N  0.51393501  0.62151799  0.91175789    -0.59000
C348        C  0.49035143  0.61717142  0.88084418     0.97700
C349        C  0.59367733  0.51684058  0.88082564     0.97500
N350        N  0.53079079  0.50539673  0.53129733    -0.04600
N351        N  0.55226350  0.49503644  0.55535900    -0.57100
N352        N  0.50636175  0.58150980  0.50571645    -0.02700
N353        N  0.51393671  0.62151532  0.51181475    -0.58400
N354        N  0.48007275  0.55473156  0.53133132    -0.04600
N355        N  0.46915943  0.57577764  0.55536731    -0.57400
N356        N  0.55734896  0.53193699  0.50569608    -0.02400
N357        N  0.59762896  0.54023982  0.51182152    -0.58500
Mn358      Mn  0.53323333  0.55811580  0.96178494     1.18400
C359        C  0.59367797  0.51683596  0.54274196     0.99800
C360        C  0.49035428  0.61716720  0.54272875     1.00500
N361        N  0.44264983  0.41651171  0.89232220    -0.04700
N362        N  0.45326327  0.39524874  0.86825001    -0.61000
N363        N  0.36541035  0.43943678  0.91790997    -0.03500
N364        N  0.32510658  0.43104721  0.91180732    -0.61700
N365        N  0.39191248  0.46589829  0.89224786    -0.04200
N366        N  0.37035780  0.47613278  0.86815569    -0.61200
N367        N  0.41632316  0.38985918  0.91797438    -0.03100
N368        N  0.40842187  0.34975862  0.91190002    -0.61900
Mn369      Mn  0.46136610  0.48563678  0.89121429     1.10700
C370        C  0.43188429  0.35388916  0.88098146     1.01000
C371        C  0.32896362  0.45435019  0.88085156     1.01100
N372        N  0.39191305  0.46589407  0.53132185    -0.04200
N373        N  0.37035847  0.47612753  0.55541462    -0.59600
N374        N  0.41632375  0.38985655  0.50559215    -0.04400
N375        N  0.40842337  0.34975590  0.51166503    -0.56300
N376        N  0.44265051  0.41650752  0.53124457    -0.04800
N377        N  0.45326498  0.39524352  0.55531543    -0.59100
N378        N  0.36541076  0.43943413  0.50565951    -0.03800
N379        N  0.32510709  0.43104456  0.51176241    -0.56300
Mn380      Mn  0.46136667  0.48563253  0.53235459     1.20200
Mn381      Mn  0.38952759  0.41331350  0.96178400     1.10100
Cl382      Cl  0.46138021  0.48568778  0.96178449    -0.84300
C383        C  0.32896442  0.45434587  0.54271870     0.98100
C384        C  0.43188640  0.35388463  0.54258265     0.97900
N385        N  0.00734070  0.54701842  0.53132042    -0.04400
N386        N  0.03913192  0.56835552  0.55545520    -0.56600
N387        N  0.90715423  0.52355145  0.50560613    -0.04100
N388        N  0.87523880  0.53190126  0.51175238    -0.58700
N389        N  0.90724032  0.49710053  0.53124498    -0.03700
N390        N  0.87548432  0.48684649  0.55538073    -0.56500
N391        N  0.00762686  0.57362288  0.50565077    -0.03400
N392        N  0.03971213  0.61378344  0.51179013    -0.59000
C393        C  0.05900658  0.60972191  0.54276659     0.97700
C394        C  0.85583323  0.50858154  0.54270337     0.97500
N395        N  0.90724055  0.49710383  0.89232478    -0.04600
N396        N  0.87548378  0.48685039  0.86819036    -0.57100
N397        N  0.00762708  0.57362526  0.91792034    -0.02700
N398        N  0.03971358  0.61378578  0.91178235    -0.58400
N399        N  0.00734123  0.54702206  0.89224985    -0.04600
N400        N  0.03913328  0.56836026  0.86811620    -0.57400
N401        N  0.90715407  0.52355384  0.91796484    -0.02400
N402        N  0.87523822  0.53190241  0.91181983    -0.58500
Mn403      Mn  0.95740592  0.54992861  0.96178547     1.18400
C404        C  0.85583201  0.50858388  0.88086855     0.99800
C405        C  0.05900837  0.60972549  0.88080593     1.00500
N406        N  0.90719827  0.40857485  0.53126425    -0.04700
N407        N  0.87529554  0.38726602  0.55530678    -0.61000
N408        N  0.00760851  0.43224389  0.50572036    -0.03500
N409        N  0.03986282  0.42436883  0.51184773    -0.61700
N410        N  0.00727710  0.45859245  0.53134446    -0.04200
N411        N  0.03917145  0.46925856  0.55541128    -0.61200
N412        N  0.90702826  0.38194889  0.50566666    -0.03100
N413        N  0.87487821  0.34179541  0.51176774    -0.61900
Mn414      Mn  0.95724142  0.47780074  0.53234596     1.10700
C415        C  0.85547043  0.34588465  0.54266637     1.01000
C416        C  0.05915643  0.44784222  0.54278472     1.01100
N417        N  0.00727759  0.45859620  0.89222272    -0.04200
N418        N  0.03917097  0.46926278  0.86815571    -0.59600
N419        N  0.90702874  0.38195136  0.91789978    -0.03500
N420        N  0.87487911  0.34179759  0.91179744    -0.56300
N421        N  0.90719863  0.40857856  0.89230285    -0.04800
N422        N  0.87529666  0.38727074  0.86825957    -0.59100
N423        N  0.00760872  0.43224614  0.91784636    -0.03800
N424        N  0.03986209  0.42437054  0.91171805    -0.56300
Mn425      Mn  0.95724186  0.47780459  0.89122273     1.20200
Mn426      Mn  0.95733587  0.40572048  0.96178326     1.10100
Cl427      Cl  0.95730504  0.47780545  0.96178434    -0.84300
C428        C  0.05915601  0.44784517  0.88078094     0.98100
C429        C  0.85547229  0.34588905  0.88089886     0.97900
N430        N  0.47247022  0.93184084  0.53131299    -0.04400
N431        N  0.46194559  0.89998210  0.55537020    -0.56600
N432        N  0.54910638  0.03207716  0.50565025    -0.04100
N433        N  0.58936483  0.06398517  0.51184130    -0.58700
N434        N  0.52251507  0.03191440  0.53129953    -0.03700
N435        N  0.54398089  0.06361062  0.55548108    -0.56500
N436        N  0.49886055  0.93161652  0.50565885    -0.03400
N437        N  0.50690973  0.89949950  0.51174030    -0.59000
C438        C  0.48347662  0.88012844  0.54267192     0.97700
C439        C  0.58540560  0.08331186  0.54282889     0.97500
N440        N  0.52251579  0.03191961  0.89226971    -0.04600
N441        N  0.54398171  0.06361685  0.86808916    -0.57100
N442        N  0.49886133  0.93162003  0.91790720    -0.02700
N443        N  0.50691160  0.89950388  0.91182415    -0.58400
N444        N  0.47247130  0.93184593  0.89225350    -0.04600
N445        N  0.46194775  0.89998939  0.86819475    -0.57400
N446        N  0.54910722  0.03208046  0.91791888    -0.02400
N447        N  0.58936542  0.06398859  0.91172821    -0.58500
Mn448      Mn  0.52531989  0.98185011  0.96178378     1.18400
C449        C  0.58540675  0.08331762  0.88074085     0.99800
C450        C  0.48347913  0.88013547  0.88089191     1.00500
N451        N  0.43377541  0.03171290  0.53129605    -0.04700
N452        N  0.44417298  0.06346423  0.55542573    -0.61000
N453        N  0.35722294  0.93141785  0.50569250    -0.03500
N454        N  0.31709382  0.89917396  0.51179883    -0.61700
N455        N  0.38393155  0.93175694  0.53131321    -0.04200
N456        N  0.36271631  0.89987302  0.55536680    -0.61200
N457        N  0.40727894  0.03185522  0.50569795    -0.03100
N458        N  0.39904890  0.06383472  0.51189048    -0.61900
Mn459      Mn  0.45318426  0.98183325  0.53235243     1.10700
C460        C  0.42244979  0.08316048  0.54284699     1.01000
C461        C  0.32130148  0.87989494  0.54272576     1.01100
N462        N  0.38393220  0.93176181  0.89225473    -0.04200
N463        N  0.36271733  0.89987938  0.86820071    -0.59600
N464        N  0.40727963  0.03185860  0.91787316    -0.03500
N465        N  0.39905037  0.06383898  0.91168224    -0.56300
N466        N  0.43377622  0.03171775  0.89227490    -0.04800
N467        N  0.44417489  0.06347136  0.86814654    -0.59100
N468        N  0.35722358  0.93142112  0.91787592    -0.03800
N469        N  0.31709452  0.89917735  0.91176930    -0.56300
Mn470      Mn  0.45318494  0.98183825  0.89121624     1.20200
Mn471      Mn  0.38087888  0.98163565  0.96178486     1.10100
Cl472      Cl  0.45314607  0.98180939  0.96178432    -0.84300
C473        C  0.32130239  0.87990057  0.88084163     0.98100
C474        C  0.42245197  0.08316700  0.88072591     0.97900
C475        C  0.43148240  0.31807622  0.56149621    -0.11600
C476        C  0.43035357  0.28818804  0.57840098    -0.13100
C477        C  0.42257762  0.11895334  0.56154490    -0.11600
C478        C  0.42317753  0.14861344  0.57841457    -0.13100
C479        C  0.42230778  0.21638209  0.72855227    -0.11600
C480        C  0.42230773  0.21638103  0.69501625    -0.13100
C481        C  0.43035094  0.28819340  0.84516257    -0.11600
C482        C  0.43147966  0.31808173  0.86206724    -0.13100
C483        C  0.42258016  0.11896115  0.86202922    -0.11600
C484        C  0.42318006  0.14862137  0.84515878    -0.13100
C485        C  0.65861877  0.51637810  0.84527328    -0.11600
C486        C  0.62945755  0.51681768  0.86216446    -0.13100
C487        C  0.79179715  0.51044637  0.84505713    -0.11600
C488        C  0.82057372  0.50929803  0.86194733    -0.13100
C489        C  0.65861982  0.51637367  0.57829518    -0.11600
C490        C  0.62945840  0.51681302  0.56140323    -0.13100
C491        C  0.72742910  0.51783292  0.69501718    -0.11600
C492        C  0.72742876  0.51783335  0.72855346    -0.13100
C493        C  0.79179962  0.51044471  0.57851606    -0.11600
C494        C  0.82057601  0.50929623  0.56162575    -0.13100
C495        C  0.62138064  0.11856956  0.56178493    -0.11600
C496        C  0.65133484  0.14737595  0.57863825    -0.13100
C497        C  0.81960271  0.31021574  0.56133797    -0.11600
C498        C  0.79004370  0.28101197  0.57821050    -0.13100
C499        C  0.62138156  0.11857533  0.86178526    -0.11600
C500        C  0.65133631  0.14738206  0.84493110    -0.13100
C501        C  0.72353978  0.21180253  0.72855371    -0.11600
C502        C  0.72353958  0.21180184  0.69501343    -0.13100
C503        C  0.81960480  0.31022003  0.86222619    -0.11600
C504        C  0.79004652  0.28101692  0.84535408    -0.13100
C505        C  0.29299741  0.45388482  0.86207797    -0.11600
C506        C  0.26325867  0.45320781  0.84521834    -0.13100
C507        C  0.09517485  0.44829989  0.86212187    -0.11600
C508        C  0.12489094  0.44894889  0.84524709    -0.13100
C509        C  0.19237831  0.44755189  0.72855784    -0.11600
C510        C  0.19237857  0.44755144  0.69500967    -0.13100
C511        C  0.26325970  0.45320389  0.57835117    -0.11600
C512        C  0.29299846  0.45388059  0.56149225    -0.13100
C513        C  0.12489266  0.44894642  0.57831809    -0.11600
C514        C  0.09517634  0.44829698  0.56144309    -0.13100
C515        C  0.12347665  0.67524765  0.57851352    -0.11600
C516        C  0.09449193  0.64551492  0.56163554    -0.13100
C517        C  0.25676628  0.81413631  0.57823346    -0.11600
C518        C  0.28575251  0.84387911  0.56135303    -0.13100
C519        C  0.09449507  0.64551959  0.86193815    -0.11600
C520        C  0.12347969  0.67525201  0.84506019    -0.13100
C521        C  0.18850574  0.74652200  0.72855443    -0.11600
C522        C  0.18850543  0.74652121  0.69501642    -0.13100
C523        C  0.25676761  0.81414257  0.84533467    -0.11600
C524        C  0.28575360  0.84388521  0.86221444    -0.13100
C525        C  0.48958582  0.65258383  0.86221773    -0.11600
C526        C  0.48866810  0.68150347  0.84535293    -0.13100
C527        C  0.48361030  0.84448896  0.86212099    -0.11600
C528        C  0.48404618  0.81533040  0.84524965    -0.13100
C529        C  0.48958898  0.65257907  0.56135659    -0.11600
C530        C  0.48867150  0.68149837  0.57822031    -0.13100
C531        C  0.48360730  0.84448076  0.56144179    -0.11600
C532        C  0.48404348  0.81532221  0.57831387    -0.13100
C533        C  0.48861962  0.74953688  0.72856356    -0.11600
C534        C  0.48861980  0.74953600  0.69500483    -0.13100
loop_ 
_geom_bond_atom_site_label_1 
_geom_bond_atom_site_label_2 
_geom_bond_distance 
_geom_bond_site_symmetry_2 
_ccdc_geom_bond_type 
C1            N2   1.358       .  A
C1            N6   1.355       .  A
C1          C263   1.434       .  S
N2            C3   1.358       .  A
C3            N4   1.358       .  A
C3          C267   1.438       .  S
N4            C5   1.358       .  A
C5            N6   1.355       .  A
C5          C265   1.434       .  S
C7            N8   1.355       .  A
C7           N12   1.358       .  A
C7          C259   1.434       .  S
N8            C9   1.355       .  A
C9           N10   1.358       .  A
C9          C261   1.434       .  S
N10          C11   1.358       .  A
C11          N12   1.358       .  A
C11         C266   1.438       .  S
C13          N14   1.358       .  A
C13          N18   1.355       .  A
C13         C256   1.433       .  S
N14          C15   1.358       .  A
C15          N16   1.358       .  A
C15         C254   1.437       .  S
N16          C17   1.358       .  A
C17          N18   1.355       .  A
C17         C253   1.433       .  S
C19          N20   1.358       .  A
C19          N24   1.355       .  A
C19         C250   1.433       .  S
N20          C21   1.358       .  A
C21          N22   1.358       .  A
C21         C255   1.437       .  S
N22          C23   1.358       .  A
C23          N24   1.355       .  A
C23         C248   1.433       .  S
C25          N26   1.355       .  A
C25          N30   1.358       .  A
C25         C246   1.433       .  S
N26          C27   1.355       .  A
C27          N28   1.358       .  A
C27         C244   1.433       .  S
N28          C29   1.358       .  A
C29          N30   1.358       .  A
C29         C243   1.438       .  S
C31          N32   1.358       .  A
C31          N36   1.355       .  A
C31         C241   1.433       .  S
N32          C33   1.358       .  A
C33          N34   1.358       .  A
C33         C242   1.438       .  S
N34          C35   1.358       .  A
C35          N36   1.355       .  A
C35         C239   1.433       .  S
C37          N38   1.358       .  A
C37          N42   1.355       .  A
C37         C237   1.433       .  S
N38          C39   1.358       .  A
C39          N40   1.358       .  A
C39         C234   1.437       .  S
N40          C41   1.358       .  A
C41          N42   1.355       .  A
C41         C233   1.433       .  S
C43          N44   1.358       .  A
C43          N48   1.355       .  A
C43         C231   1.433       .  S
N44          C45   1.358       .  A
C45          N46   1.358       .  A
C45         C235   1.437       .  S
N46          C47   1.358       .  A
C47          N48   1.355       .  A
C47         C229   1.433       .  S
C49          N50   1.358       .  A
C49          N54   1.355       .  A
C49         C222   1.433       .  S
N50          C51   1.358       .  A
C51          N52   1.358       .  A
C51         C224   1.437       .  S
N52          C53   1.358       .  A
C53          N54   1.355       .  A
C53         C226   1.432       .  S
C55          N56   1.358       .  A
C55          N60   1.355       .  A
C55         C218   1.433       .  S
N56          C57   1.358       .  A
C57          N58   1.358       .  A
C57         C225   1.437       .  S
N58          C59   1.358       .  A
C59          N60   1.355       .  A
C59         C220   1.432       .  S
C61          N62   1.358       .  A
C61          N66   1.355       .  A
C61         C217   1.433       .  S
N62          C63   1.358       .  A
C63          N64   1.358       .  A
C63         C212   1.437       .  S
N64          C65   1.358       .  A
C65          N66   1.355       .  A
C65         C214   1.433       .  S
C67          N68   1.355       .  A
C67          N72   1.358       .  A
C67         C211   1.433       .  S
N68          C69   1.355       .  A
C69          N70   1.358       .  A
C69         C209   1.433       .  S
N70          C71   1.358       .  A
C71          N72   1.358       .  A
C71         C213   1.437       .  S
N73          N74   1.319       .  A
N73          N79   1.316       .  A
N73        Mn102   2.193       .  S
N74          C81   1.348       .  A
N75          N77   1.316       .  A
N75          N76   1.322       .  A
N75         Mn91   2.208       .  S
N76          C82   1.352       .  A
N77          N78   1.319       .  A
N77        Mn102   2.192       .  S
N78          C82   1.348       .  A
N79          N80   1.322       .  A
N79         Mn91   2.208       .  S
N80          C81   1.352       .  A
C81         C258   1.434       .  S
C82         C219   1.433       .  S
N83          N89   1.316       .  A
N83          N84   1.319       .  A
N83        Mn113   2.192       .  S
N84          C92   1.348       .  A
N85          N86   1.322       .  A
N85          N87   1.316       .  A
N85        Mn358   2.208   1_554  S
N86          C93   1.352       .  A
N87          N88   1.319       .  A
N87        Mn113   2.193       .  S
N88          C93   1.348       .  A
N89          N90   1.322       .  A
N89        Mn358   2.208   1_554  S
N90          C92   1.352       .  A
Mn91        N352   2.208       .  S
Mn91        N356   2.208       .  S
Mn91       Cl115   2.554       .  S
C92         C223   1.433       .  S
C93         C262   1.434       .  S
N94          N95   1.319       .  A
N94         N100   1.316       .  A
N94        Mn102   2.193       .  S
N95         C103   1.349       .  A
N96          N98   1.316       .  A
N96          N97   1.321       .  A
N96        Mn114   2.206       .  S
N97         C104   1.352       .  A
N98          N99   1.319       .  A
N98        Mn102   2.193       .  S
N99         C104   1.349       .  A
N100        N101   1.321       .  A
N100       Mn114   2.205       .  S
N101        C103   1.352       .  A
Mn102      Cl115   2.539       .  S
C103        C215   1.433       .  S
C104        C238   1.433       .  S
N105        N106   1.319       .  A
N105        N111   1.316       .  A
N105       Mn113   2.193       .  S
N106        C116   1.349       .  A
N107        N108   1.321       .  A
N107        N109   1.316       .  A
N107       Mn381   2.205   1_554  S
N108        C117   1.352       .  A
N109        N110   1.319       .  A
N109       Mn113   2.193       .  S
N110        C117   1.349       .  A
N111        N112   1.321       .  A
N111       Mn381   2.206   1_554  S
N112        C116   1.352       .  A
Mn113      Cl382   2.539   1_554  S
Mn114       N374   2.205       .  S
Mn114       N378   2.206       .  S
Mn114      Cl115   2.553       .  S
Cl115      Mn380   2.539       .  S
C116        C245   1.433       .  S
C117        C208   1.433       .  S
N118        N119   1.319       .  A
N118        N124   1.316       .  A
N118       Mn147   2.192   1_455  S
N119        C126   1.349       .  A
N120        N122   1.316       .  A
N120        N121   1.321       .  A
N120       Mn403   2.204   1_554  S
N121        C127   1.351       .  A
N122        N123   1.319       .  A
N122       Mn147   2.193       .  S
N123        C127   1.349       .  A
N124        N125   1.321       .  A
N124       Mn403   2.205   1_454  S
N125        C126   1.352       .  A
C126        C249   1.433       .  S
C127        C227   1.432       .  S
N128        N134   1.316       .  A
N128        N129   1.319       .  A
N128       Mn158   2.193       .  S
N129        C137   1.349       .  A
N130        N131   1.321       .  A
N130        N132   1.316       .  A
N130       Mn136   2.205   1_455  S
N131        C138   1.352       .  A
N132        N133   1.319       .  A
N132       Mn158   2.192   1_455  S
N133        C138   1.349       .  A
N134        N135   1.321       .  A
N134       Mn136   2.204       .  S
N135        C137   1.351       .  A
Mn136       N387   2.204       .  S
Mn136       N391   2.205   1_655  S
Mn136      Cl160   2.552       .  S
C137        C221   1.432       .  S
C138        C252   1.433       .  S
N139        N140   1.319       .  A
N139        N145   1.316       .  A
N139       Mn147   2.192       .  S
N140        C148   1.348       .  A
N141        N143   1.316       .  A
N141        N142   1.322       .  A
N141       Mn426   2.208   1_454  S
N142        C149   1.352       .  A
N143        N144   1.319       .  A
N143       Mn147   2.191   1_455  S
N144        C149   1.348       .  A
N145        N146   1.322       .  A
N145       Mn426   2.207   1_554  S
N146        C148   1.352       .  A
Mn147      Cl427   2.539   1_554  S
C148        C230   1.433       .  S
C149        C247   1.433       .  S
N150        N151   1.319       .  A
N150        N156   1.316       .  A
N150       Mn158   2.191   1_455  S
N151        C161   1.348       .  A
N152        N153   1.322       .  A
N152        N154   1.316       .  A
N152       Mn159   2.207       .  S
N153        C162   1.352       .  A
N154        N155   1.319       .  A
N154       Mn158   2.192       .  S
N155        C162   1.348       .  A
N156        N157   1.322       .  A
N156       Mn159   2.208   1_455  S
N157        C161   1.352       .  A
Mn158      Cl160   2.539       .  S
Mn159       N408   2.208   1_655  S
Mn159       N412   2.207       .  S
Mn159      Cl160   2.553       .  S
Cl160      Mn414   2.539       .  S
C161        C240   1.433       .  S
C162        C236   1.433       .  S
N163        N164   1.319       .  A
N163        N169   1.316       .  A
N163       Mn192   2.193       .  S
N164        C171   1.349       .  A
N165        N167   1.316       .  A
N165        N166   1.321       .  A
N165       Mn448   2.206   1_544  S
N166        C172   1.352       .  A
N167        N168   1.320       .  A
N167       Mn192   2.194   1_545  S
N168        C172   1.349       .  A
N169        N170   1.321       .  A
N169       Mn448   2.206   1_554  S
N170        C171   1.352       .  A
C171        C264   1.434       .  S
C172        C228   1.434       .  S
N173        N179   1.316       .  A
N173        N174   1.320       .  A
N173       Mn203   2.194   1_545  S
N174        C182   1.349       .  A
N175        N176   1.321       .  A
N175        N177   1.316       .  A
N175       Mn181   2.206       .  S
N176        C183   1.352       .  A
N177        N178   1.319       .  A
N177       Mn203   2.193       .  S
N178        C183   1.349       .  A
N179        N180   1.321       .  A
N179       Mn181   2.206   1_545  S
N180        C182   1.352       .  A
Mn181       N432   2.206   1_565  S
Mn181       N436   2.206       .  S
Mn181      Cl205   2.553       .  S
C182        C232   1.434       .  S
C183        C260   1.434       .  S
N184        N185   1.319       .  A
N184        N190   1.316       .  A
N184       Mn192   2.192   1_545  S
N185        C193   1.348       .  A
N186        N188   1.316       .  A
N186        N187   1.322       .  A
N186       Mn471   2.207   1_554  S
N187        C194   1.352       .  A
N188        N189   1.319       .  A
N188       Mn192   2.192       .  S
N189        C194   1.348       .  A
N190        N191   1.322       .  A
N190       Mn471   2.207   1_544  S
N191        C193   1.352       .  A
Mn192      Cl472   2.539   1_554  S
C193        C210   1.433       .  S
C194        C251   1.433       .  S
N195        N196   1.319       .  A
N195        N201   1.316       .  A
N195       Mn203   2.192       .  S
N196        C206   1.348       .  A
N197        N198   1.322       .  A
N197        N199   1.316       .  A
N197       Mn204   2.207   1_545  S
N198        C207   1.352       .  A
N199        N200   1.319       .  A
N199       Mn203   2.192   1_545  S
N200        C207   1.348       .  A
N201        N202   1.322       .  A
N201       Mn204   2.207       .  S
N202        C206   1.352       .  A
Mn203      Cl205   2.539       .  S
Mn204       N453   2.207       .  S
Mn204       N457   2.207   1_565  S
Mn204      Cl205   2.554       .  S
Cl205      Mn459   2.539       .  S
C206        C257   1.433       .  S
C207        C216   1.433       .  S
C208        C209   1.204       .  T
C210        C211   1.204       .  T
C212        C213   1.207       .  T
C214        C215   1.204       .  T
C216        C217   1.204       .  T
C218        C219   1.204       .  T
C220        C221   1.204       .  T
C222        C223   1.204       .  T
C224        C225   1.207       .  T
C226        C227   1.204       .  T
C228        C229   1.204       .  T
C230        C231   1.204       .  T
C232        C233   1.204       .  T
C234        C235   1.207       .  T
C236        C237   1.204       .  T
C238        C239   1.204       .  T
C240        C241   1.204       .  T
C242        C243   1.207       .  T
C244        C245   1.204       .  T
C246        C247   1.204       .  T
C248        C249   1.204       .  T
C250        C251   1.204       .  T
C252        C253   1.204       .  T
C254        C255   1.207       .  T
C256        C257   1.204       .  T
C258        C259   1.205       .  T
C260        C261   1.204       .  T
C262        C263   1.205       .  T
C264        C265   1.205       .  T
C266        C267   1.207       .  T
C268        N269   1.358       .  A
C268        N273   1.355       .  A
C268        C530   1.434       .  S
N269        C270   1.358       .  A
C270        N271   1.358       .  A
C270        C534   1.438       .  S
N271        C272   1.358       .  A
C272        N273   1.355       .  A
C272        C532   1.434       .  S
C274        N275   1.355       .  A
C274        N279   1.358       .  A
C274        C526   1.434       .  S
N275        C276   1.355       .  A
C276        N277   1.358       .  A
C276        C528   1.434       .  S
N277        C278   1.358       .  A
C278        N279   1.358       .  A
C278        C533   1.438       .  S
C280        N281   1.358       .  A
C280        N285   1.355       .  A
C280        C523   1.433       .  S
N281        C282   1.358       .  A
C282        N283   1.358       .  A
C282        C521   1.437       .  S
N283        C284   1.358       .  A
C284        N285   1.355       .  A
C284        C520   1.433       .  S
C286        N287   1.358       .  A
C286        N291   1.355       .  A
C286        C517   1.433       .  S
N287        C288   1.358       .  A
C288        N289   1.358       .  A
C288        C522   1.437       .  S
N289        C290   1.358       .  A
C290        N291   1.355       .  A
C290        C515   1.433       .  S
C292        N293   1.355       .  A
C292        N297   1.358       .  A
C292        C513   1.433       .  S
N293        C294   1.355       .  A
C294        N295   1.358       .  A
C294        C511   1.433       .  S
N295        C296   1.358       .  A
C296        N297   1.358       .  A
C296        C510   1.438       .  S
C298        N299   1.358       .  A
C298        N303   1.355       .  A
C298        C508   1.433       .  S
N299        C300   1.358       .  A
C300        N301   1.358       .  A
C300        C509   1.438       .  S
N301        C302   1.358       .  A
C302        N303   1.355       .  A
C302        C506   1.433       .  S
C304        N305   1.358       .  A
C304        N309   1.355       .  A
C304        C504   1.433       .  S
N305        C306   1.358       .  A
C306        N307   1.358       .  A
C306        C501   1.437       .  S
N307        C308   1.358       .  A
C308        N309   1.355       .  A
C308        C500   1.433       .  S
C310        N311   1.358       .  A
C310        N315   1.355       .  A
C310        C498   1.433       .  S
N311        C312   1.358       .  A
C312        N313   1.358       .  A
C312        C502   1.437       .  S
N313        C314   1.358       .  A
C314        N315   1.355       .  A
C314        C496   1.433       .  S
C316        N317   1.358       .  A
C316        N321   1.355       .  A
C316        C489   1.433       .  S
N317        C318   1.358       .  A
C318        N319   1.358       .  A
C318        C491   1.437       .  S
N319        C320   1.358       .  A
C320        N321   1.355       .  A
C320        C493   1.432       .  S
C322        N323   1.358       .  A
C322        N327   1.355       .  A
C322        C485   1.433       .  S
N323        C324   1.358       .  A
C324        N325   1.358       .  A
C324        C492   1.437       .  S
N325        C326   1.358       .  A
C326        N327   1.355       .  A
C326        C487   1.432       .  S
C328        N329   1.358       .  A
C328        N333   1.355       .  A
C328        C484   1.433       .  S
N329        C330   1.358       .  A
C330        N331   1.358       .  A
C330        C479   1.437       .  S
N331        C332   1.358       .  A
C332        N333   1.355       .  A
C332        C481   1.433       .  S
C334        N335   1.355       .  A
C334        N339   1.358       .  A
C334        C478   1.433       .  S
N335        C336   1.355       .  A
C336        N337   1.358       .  A
C336        C476   1.433       .  S
N337        C338   1.358       .  A
C338        N339   1.358       .  A
C338        C480   1.437       .  S
N340        N341   1.319       .  A
N340        N346   1.316       .  A
N340       Mn369   2.193       .  S
N341        C348   1.348       .  A
N342        N344   1.316       .  A
N342        N343   1.322       .  A
N342       Mn358   2.208       .  S
N343        C349   1.352       .  A
N344        N345   1.319       .  A
N344       Mn369   2.192       .  S
N345        C349   1.348       .  A
N346        N347   1.322       .  A
N346       Mn358   2.208       .  S
N347        C348   1.352       .  A
C348        C525   1.434       .  S
C349        C486   1.433       .  S
N350        N356   1.316       .  A
N350        N351   1.319       .  A
N350       Mn380   2.192       .  S
N351        C359   1.348       .  A
N352        N353   1.322       .  A
N352        N354   1.316       .  A
N353        C360   1.352       .  A
N354        N355   1.319       .  A
N354       Mn380   2.193       .  S
N355        C360   1.348       .  A
N356        N357   1.322       .  A
N357        C359   1.352       .  A
Mn358      Cl382   2.554       .  S
C359        C490   1.433       .  S
C360        C529   1.434       .  S
N361        N362   1.319       .  A
N361        N367   1.316       .  A
N361       Mn369   2.193       .  S
N362        C370   1.349       .  A
N363        N365   1.316       .  A
N363        N364   1.321       .  A
N363       Mn381   2.206       .  S
N364        C371   1.352       .  A
N365        N366   1.319       .  A
N365       Mn369   2.193       .  S
N366        C371   1.349       .  A
N367        N368   1.321       .  A
N367       Mn381   2.205       .  S
N368        C370   1.352       .  A
Mn369      Cl382   2.539       .  S
C370        C482   1.433       .  S
C371        C505   1.433       .  S
N372        N373   1.319       .  A
N372        N378   1.316       .  A
N372       Mn380   2.193       .  S
N373        C383   1.349       .  A
N374        N375   1.321       .  A
N374        N376   1.316       .  A
N375        C384   1.352       .  A
N376        N377   1.319       .  A
N376       Mn380   2.193       .  S
N377        C384   1.349       .  A
N378        N379   1.321       .  A
N379        C383   1.352       .  A
Mn381      Cl382   2.553       .  S
C383        C512   1.433       .  S
C384        C475   1.433       .  S
N385        N386   1.319       .  A
N385        N391   1.316       .  A
N385       Mn414   2.192   1_455  S
N386        C393   1.349       .  A
N387        N389   1.316       .  A
N387        N388   1.321       .  A
N388        C394   1.351       .  A
N389        N390   1.319       .  A
N389       Mn414   2.193       .  S
N390        C394   1.349       .  A
N391        N392   1.321       .  A
N392        C393   1.352       .  A
C393        C516   1.433       .  S
C394        C494   1.432       .  S
N395        N401   1.316       .  A
N395        N396   1.319       .  A
N395       Mn425   2.193       .  S
N396        C404   1.349       .  A
N397        N398   1.321       .  A
N397        N399   1.316       .  A
N397       Mn403   2.205   1_455  S
N398        C405   1.352       .  A
N399        N400   1.319       .  A
N399       Mn425   2.192   1_455  S
N400        C405   1.349       .  A
N401        N402   1.321       .  A
N401       Mn403   2.204       .  S
N402        C404   1.351       .  A
Mn403      Cl427   2.552       .  S
C404        C488   1.432       .  S
C405        C519   1.433       .  S
N406        N407   1.319       .  A
N406        N412   1.316       .  A
N406       Mn414   2.192       .  S
N407        C415   1.348       .  A
N408        N410   1.316       .  A
N408        N409   1.322       .  A
N409        C416   1.352       .  A
N410        N411   1.319       .  A
N410       Mn414   2.191   1_455  S
N411        C416   1.348       .  A
N412        N413   1.322       .  A
N413        C415   1.352       .  A
C415        C497   1.433       .  S
C416        C514   1.433       .  S
N417        N418   1.319       .  A
N417        N423   1.316       .  A
N417       Mn425   2.191   1_455  S
N418        C428   1.348       .  A
N419        N420   1.322       .  A
N419        N421   1.316       .  A
N419       Mn426   2.207       .  S
N420        C429   1.352       .  A
N421        N422   1.319       .  A
N421       Mn425   2.192       .  S
N422        C429   1.348       .  A
N423        N424   1.322       .  A
N423       Mn426   2.208   1_455  S
N424        C428   1.352       .  A
Mn425      Cl427   2.539       .  S
Mn426      Cl427   2.553       .  S
C428        C507   1.433       .  S
C429        C503   1.433       .  S
N430        N431   1.319       .  A
N430        N436   1.316       .  A
N430       Mn459   2.193       .  S
N431        C438   1.349       .  A
N432        N434   1.316       .  A
N432        N433   1.321       .  A
N433        C439   1.352       .  A
N434        N435   1.320       .  A
N434       Mn459   2.194   1_545  S
N435        C439   1.349       .  A
N436        N437   1.321       .  A
N437        C438   1.352       .  A
C438        C531   1.434       .  S
C439        C495   1.434       .  S
N440        N446   1.316       .  A
N440        N441   1.320       .  A
N440       Mn470   2.194   1_545  S
N441        C449   1.349       .  A
N442        N443   1.321       .  A
N442        N444   1.316       .  A
N442       Mn448   2.206       .  S
N443        C450   1.352       .  A
N444        N445   1.319       .  A
N444       Mn470   2.193       .  S
N445        C450   1.349       .  A
N446        N447   1.321       .  A
N446       Mn448   2.206   1_545  S
N447        C449   1.352       .  A
Mn448      Cl472   2.553       .  S
C449        C499   1.434       .  S
C450        C527   1.434       .  S
N451        N452   1.319       .  A
N451        N457   1.316       .  A
N451       Mn459   2.192   1_545  S
N452        C460   1.348       .  A
N453        N455   1.316       .  A
N453        N454   1.322       .  A
N454        C461   1.352       .  A
N455        N456   1.319       .  A
N455       Mn459   2.192       .  S
N456        C461   1.348       .  A
N457        N458   1.322       .  A
N458        C460   1.352       .  A
C460        C477   1.433       .  S
C461        C518   1.433       .  S
N462        N463   1.319       .  A
N462        N468   1.316       .  A
N462       Mn470   2.192       .  S
N463        C473   1.348       .  A
N464        N465   1.322       .  A
N464        N466   1.316       .  A
N464       Mn471   2.207   1_545  S
N465        C474   1.352       .  A
N466        N467   1.319       .  A
N466       Mn470   2.192   1_545  S
N467        C474   1.348       .  A
N468        N469   1.322       .  A
N468       Mn471   2.207       .  S
N469        C473   1.352       .  A
Mn470      Cl472   2.539       .  S
Mn471      Cl472   2.554       .  S
C473        C524   1.433       .  S
C474        C483   1.433       .  S
C475        C476   1.204       .  T
C477        C478   1.204       .  T
C479        C480   1.207       .  T
C481        C482   1.204       .  T
C483        C484   1.204       .  T
C485        C486   1.204       .  T
C487        C488   1.204       .  T
C489        C490   1.204       .  T
C491        C492   1.207       .  T
C493        C494   1.204       .  T
C495        C496   1.204       .  T
C497        C498   1.204       .  T
C499        C500   1.204       .  T
C501        C502   1.207       .  T
C503        C504   1.204       .  T
C505        C506   1.204       .  T
C507        C508   1.204       .  T
C509        C510   1.207       .  T
C511        C512   1.204       .  T
C513        C514   1.204       .  T
C515        C516   1.204       .  T
C517        C518   1.204       .  T
C519        C520   1.204       .  T
C521        C522   1.207       .  T
C523        C524   1.204       .  T
C525        C526   1.205       .  T
C527        C528   1.204       .  T
C529        C530   1.205       .  T
C531        C532   1.204       .  T
C533        C534   1.207       .  T
