geometry optimzed in LAMMPS
_audit_creation_date              2020-11-30 
_audit_creation_method            'lammps2cif' 
_symmetry_space_group_name_H-M    'P1' 
_symmetry_Int_Tables_number       1 
_symmetry_cell_setting            triclinic 
loop_ 
_symmetry_equiv_pos_as_xyz 
  x,y,z 
_cell_length_a                    39.17408097986956 
_cell_length_b                    39.29877737032293 
_cell_length_c                    39.22537684041384 
_cell_angle_alpha                 89.9437681377026 
_cell_angle_beta                  90.13900985760603 
_cell_angle_gamma                 90.01597847116398 
loop_ 
_atom_site_label 
_atom_site_type_symbol 
_atom_site_fract_x 
_atom_site_fract_y 
_atom_site_fract_z 
_atom_site_charge 
C1          C  0.99902828  0.26541169  0.73994476     0.00300
C2          C  0.99891424  0.24009647  0.76329573     0.00300
C3          C  0.25304359  0.99907673  0.73011217     0.00300
C4          C  0.22861866  0.99913247  0.75422293     0.00300
C5          C  0.99939358  0.73692355  0.26174000     0.00300
C6          C  0.99975081  0.76152312  0.23779639     0.00300
C7          C  0.76354158  0.99997127  0.24025651     0.00300
C8          C  0.74138532  0.99955640  0.26645609     0.00300
C9          C  0.74204133  0.26729833  0.99838411     0.00300
C10         C  0.76727122  0.24405260  0.99880585     0.00300
C11         C  0.26285708  0.73891592  0.00161187     0.00300
C12         C  0.23803935  0.76264414  0.00116070     0.00300
C13         C  0.76143952  0.76341664  0.00019211     0.00300
C14         C  0.73777047  0.73855025  0.00003407     0.00300
C15         C  0.73982991  0.00045894  0.73593988     0.00300
C16         C  0.75815361  0.00051152  0.76517419     0.00300
C17         C  0.99915607  0.73710355  0.73850245     0.00300
C18         C  0.99945969  0.76178919  0.76229752     0.00300
O19         O  0.16518345  0.87801296  0.91186251    -0.85610
O20         O  0.15519700  0.93550765  0.87384056    -0.82650
C21         C  0.14890165  0.92535682  0.84392623     0.97850
O22         O  0.12071560  0.91150653  0.83698318    -0.82690
O23         O  0.06246638  0.87438995  0.84613534    -0.85330
C24         C  0.07335557  0.84445787  0.84974320     1.02380
O25         O  0.08826456  0.83589028  0.87697491    -0.78090
O26         O  0.12782100  0.84313707  0.93434787    -0.78280
C27         C  0.15786433  0.84956314  0.92478279     1.02330
O28         O  0.12755782  0.90801156  0.96694808    -0.85600
O29         O  0.11364332  0.96363525  0.92721099    -0.82670
C30         C  0.10118343  0.98052280  0.90289945     0.97870
O31         O  0.09182705  0.96584512  0.87581185    -0.82700
O32         O  0.03576395  0.92493140  0.88981040    -0.85300
C33         C  0.01914306  0.90001447  0.90158296     1.02350
O34         O  0.03408820  0.87282765  0.91022360    -0.78120
O35         O  0.07668723  0.88430843  0.96508042    -0.78270
C36         C  0.10072534  0.89802900  0.98157592     1.02310
Cr37       Cr  0.13716269  0.91959153  0.91859273     1.93740
Cr38       Cr  0.07942853  0.91785320  0.86532861     1.93210
Cr39       Cr  0.08304962  0.86221980  0.92014533     1.39100
O40         O  0.09973116  0.90001826  0.90165360    -1.23360
O41         O  0.91238908  0.87840667  0.83591230    -0.85610
O42         O  0.87334276  0.93547848  0.84436974    -0.82650
C43         C  0.84319012  0.92596109  0.85062740     0.97850
O44         O  0.83608770  0.91212336  0.87873034    -0.82690
O45         O  0.84548577  0.87431751  0.93653852    -0.85330
C46         C  0.85041030  0.84431890  0.92630651     1.02380
O47         O  0.87820310  0.83640889  0.91223726    -0.78090
O48         O  0.93593700  0.84488743  0.87378786    -0.78280
C49         C  0.92604814  0.85041100  0.84366152     1.02330
O50         O  0.96694580  0.91005069  0.87395454    -0.85600
O51         O  0.92528013  0.96523956  0.88617730    -0.82670
C52         C  0.90054041  0.98182926  0.89822278     0.97870
O53         O  0.87400810  0.96671118  0.90847863    -0.82700
O54         O  0.88766271  0.92550296  0.96499602    -0.85300
C55         C  0.90006611  0.90087178  0.98170271     1.02350
O56         O  0.90979792  0.87414183  0.96674317    -0.78120
O57         O  0.96511101  0.88697598  0.92503271    -0.78270
C58         C  0.98173687  0.90018193  0.90086434     1.02310
Cr59       Cr  0.91815357  0.92057960  0.86340616     1.93740
Cr60       Cr  0.86414909  0.91835850  0.92050627     1.93210
Cr61       Cr  0.92059462  0.86389287  0.91805611     1.39100
O62         O  0.90122817  0.90117774  0.90086096    -1.23360
O63         O  0.08871733  0.87704127  0.16449120    -0.85610
O64         O  0.12882468  0.93354661  0.15627865    -0.82650
C65         C  0.15898812  0.92549071  0.14847045     0.97850
O66         O  0.16580707  0.91349504  0.11954102    -0.82690
O67         O  0.15488060  0.87289331  0.06448340    -0.85330
C68         C  0.14904612  0.84307208  0.07508927     1.02380
O69         O  0.12098288  0.83577813  0.08905680    -0.78090
O70         O  0.06272622  0.84562111  0.12671789    -0.78280
C71         C  0.07387727  0.84969922  0.15650698     1.02330
O72         O  0.03445122  0.91067345  0.12687953    -0.85600
O73         O  0.07736499  0.96535942  0.11581565    -0.82670
C74         C  0.10054293  0.98188311  0.10073931     0.97870
O75         O  0.12626701  0.96690938  0.08846470    -0.82700
O76         O  0.11185530  0.92380177  0.03481240    -0.85300
C77         C  0.09982414  0.89876551  0.01873232     1.02350
O78         O  0.09047501  0.87230792  0.03415761    -0.78120
O79         O  0.03566658  0.88827779  0.07545574    -0.78270
C80         C  0.01935583  0.90135981  0.09988131     1.02310
Cr81       Cr  0.08364297  0.91998348  0.13752611     1.93740
Cr82       Cr  0.13634500  0.91791057  0.07865512     1.93210
Cr83       Cr  0.07929725  0.86390332  0.08277664     1.39100
O84         O  0.09969072  0.90092300  0.09957215    -1.23360
O85         O  0.83601046  0.87762987  0.08947805    -0.85610
O86         O  0.84460318  0.93439515  0.12864164    -0.82650
C87         C  0.85238167  0.92603708  0.15876268     0.97850
O88         O  0.88102868  0.91303869  0.16544313    -0.82690
O89         O  0.93806918  0.87458665  0.15467595    -0.85330
C90         C  0.92701425  0.84478787  0.15019959     1.02380
O91         O  0.91273428  0.83677216  0.12247230    -0.78090
O92         O  0.87365205  0.84489687  0.06489015    -0.78280
C93         C  0.84366285  0.84997832  0.07525571     1.02330
O94         O  0.87277895  0.91025977  0.03436922    -0.85600
O95         O  0.88456737  0.96508458  0.07651093    -0.82670
C96         C  0.89828899  0.98168098  0.10037428     0.97870
O97         O  0.91018603  0.96695810  0.12637158    -0.82700
O98         O  0.96542362  0.92593104  0.11157505    -0.85300
C99         C  0.98195428  0.90127736  0.09936764     1.02350
O100        O  0.96690896  0.87435779  0.09026929    -0.78120
O101        O  0.92412936  0.88755966  0.03552862    -0.78270
C102        C  0.89961823  0.90076726  0.01920897     1.02310
Cr103      Cr  0.86286171  0.92014279  0.08353057     1.93740
Cr104      Cr  0.92185987  0.91871447  0.13619155     1.93210
Cr105      Cr  0.91800158  0.86416860  0.07999953     1.39100
O106        O  0.90103523  0.90130747  0.09969204    -1.23360
O107        O  0.93779193  0.15494102  0.87501260    -0.85610
O108        O  0.87958049  0.16419062  0.91219563    -0.82650
C109        C  0.85144947  0.15717182  0.92607481     0.97850
O110        O  0.84517700  0.12715444  0.93590059    -0.82690
O111        O  0.83552378  0.08924880  0.87842610    -0.85330
C112        C  0.84249170  0.07576783  0.85017913     1.02380
O113        O  0.87262867  0.06652292  0.84358658    -0.78090
O114        O  0.91154398  0.12429099  0.83666636    -0.78280
C115        C  0.92625123  0.15157079  0.84518773     1.02330
O116        O  0.96456760  0.11103334  0.92589565    -0.85600
O117        O  0.90842488  0.12575709  0.96680289    -0.82670
C118        C  0.89850848  0.09900450  0.98159783     0.97870
O119        O  0.88690240  0.07435653  0.96453402    -0.82700
O120        O  0.87350902  0.03420007  0.90791340    -0.85300
C121        C  0.90019458  0.01927426  0.89767933     1.02350
O122        O  0.92453135  0.03590430  0.88479353    -0.78120
O123        O  0.96631690  0.09107408  0.87355210    -0.78270
C124        C  0.98115394  0.09899191  0.90107656     1.02310
Cr125      Cr  0.92095557  0.13579366  0.91861744     1.93740
Cr126      Cr  0.86351605  0.08250760  0.92008572     1.93210
Cr127      Cr  0.91744953  0.08102789  0.86281245     1.39100
O128        O  0.90079823  0.09947277  0.90069316    -1.23360
O129        O  0.90846616  0.12096479  0.16492638    -0.85610
O130        O  0.86935843  0.06429592  0.15527781    -0.82650
C131        C  0.83942299  0.07435543  0.14886206     0.97850
O132        O  0.83233913  0.08815380  0.12071620    -0.82690
O133        O  0.84260789  0.12724683  0.06384598    -0.85330
C134        C  0.84892629  0.15705839  0.07422070     1.02380
O135        O  0.87656664  0.16358419  0.08925683    -0.78090
O136        O  0.93370782  0.15409163  0.12788313    -0.78280
C137        C  0.92309846  0.14858373  0.15775589     1.02330
O138        O  0.96338836  0.08963808  0.12762984    -0.85600
O139        O  0.92139088  0.03530823  0.11371701    -0.82670
C140        C  0.89725076  0.01881503  0.10032917     0.97870
O141        O  0.87037255  0.03353797  0.09032763    -0.82700
O142        O  0.88492958  0.07462777  0.03549436    -0.85300
C143        C  0.89749889  0.09918132  0.01910895     1.02350
O144        O  0.90665928  0.12602547  0.03438983    -0.78120
O145        O  0.96199428  0.11176851  0.07618507    -0.78270
C146        C  0.97847220  0.09911021  0.10079940     1.02310
Cr147      Cr  0.91433123  0.07916772  0.13719001     1.93740
Cr148      Cr  0.86073902  0.08222224  0.07932445     1.93210
Cr149      Cr  0.91805700  0.13568957  0.08317566     1.39100
O150        O  0.89783956  0.09882972  0.09978601    -1.23360
O151        O  0.12765613  0.15652354  0.93249655    -0.85610
O152        O  0.08794023  0.16212039  0.87454375    -0.82650
C153        C  0.07244052  0.15293473  0.84779751     0.97850
O154        O  0.06132802  0.12304173  0.84546314    -0.82690
O155        O  0.12031008  0.08611135  0.83710471    -0.85330
C156        C  0.14833453  0.07211998  0.84469497     1.02380
O157        O  0.15394412  0.06224906  0.87488945    -0.78090
O158        O  0.16446104  0.11979505  0.91220749    -0.78280
C159        C  0.15783241  0.14865906  0.92440703     1.02330
O160        O  0.07552938  0.11673324  0.96488982    -0.85600
O161        O  0.03356743  0.12636351  0.90932912    -0.82670
C162        C  0.01854119  0.09893748  0.90160233     0.97870
O163        O  0.03499438  0.07370870  0.89019455    -0.82700
O164        O  0.09116659  0.03250808  0.87615579    -0.85300
C165        C  0.10047691  0.01788983  0.90322844     1.02350
O166        O  0.11172456  0.03501829  0.92799988    -0.78120
O167        O  0.12575451  0.09194544  0.96740019    -0.78270
C168        C  0.09927559  0.10313378  0.98194560     1.02310
Cr169      Cr  0.08252211  0.13722766  0.91886540     1.93740
Cr170      Cr  0.07867044  0.08025718  0.86541426     1.93210
Cr171      Cr  0.13570037  0.07894395  0.91927830     1.39100
O172        O  0.09881391  0.09869517  0.90154939    -1.23360
O173        O  0.11848188  0.08843245  0.16602971    -0.85610
O174        O  0.06116283  0.12698696  0.15618318    -0.82650
C175        C  0.07045098  0.15718836  0.15030730     0.97850
O176        O  0.08416058  0.16495360  0.12233143    -0.82690
O177        O  0.12360433  0.15690681  0.06544190    -0.85330
C178        C  0.15374582  0.15194166  0.07573275     1.02380
O179        O  0.16146414  0.12440828  0.09034227    -0.78090
O180        O  0.15361871  0.06668682  0.12857573    -0.78280
C181        C  0.14702752  0.07564888  0.15869334     1.02330
O182        O  0.08832469  0.03423355  0.12706366    -0.85600
O183        O  0.03266298  0.07555336  0.11367231    -0.82670
C184        C  0.01588627  0.09969483  0.10061356     0.97870
O185        O  0.03058768  0.12645136  0.09057686    -0.82700
O186        O  0.07307301  0.11397759  0.03571797    -0.85300
C187        C  0.09841528  0.10261556  0.01952348     1.02350
O188        O  0.12499835  0.09299695  0.03518700    -0.78120
O189        O  0.11308044  0.03635128  0.07683273    -0.78270
C190        C  0.09974512  0.01945704  0.10085926     1.02310
Cr191      Cr  0.07690115  0.08274667  0.13736388     1.93740
Cr192      Cr  0.07926644  0.13719845  0.08032613     1.93210
Cr193      Cr  0.13483057  0.08170182  0.08399966     1.39100
O194        O  0.09676586  0.10026009  0.10038140    -1.23360
C195        C  0.49807699  0.23644913  0.26097975     0.00300
C196        C  0.49723982  0.25740340  0.23366127     0.00300
C197        C  0.23873565  0.26493515  0.50115433     0.00300
C198        C  0.25913965  0.23721623  0.50160180     0.00300
C199        C  0.23738037  0.50150076  0.26255223     0.00300
C200        C  0.26479553  0.50104385  0.24188938     0.00300
C201        C  0.25822770  0.26458241  0.99976126     0.00300
C202        C  0.23947809  0.23568920  0.99965468     0.00300
C203        C  0.23967192  0.00103646  0.23519586     0.00300
C204        C  0.26688024  0.00250239  0.25628171     0.00300
C205        C  0.49961091  0.76239828  0.73880580     0.00300
C206        C  0.50003889  0.73364031  0.75771807     0.00300
C207        C  0.23269834  0.74208265  0.50004400     0.00300
C208        C  0.25954032  0.76349374  0.49953439     0.00300
C209        C  0.49851282  0.74137223  0.23427748     0.00300
C210        C  0.49918558  0.76327736  0.26068927     0.00300
O211        O  0.34379976  0.93425394  0.37021880    -0.85610
O212        O  0.33415584  0.87719041  0.40947151    -0.82650
C213        C  0.34162366  0.84965981  0.42422432     0.97850
O214        O  0.37141773  0.84480473  0.43542502    -0.82690
O215        O  0.41161751  0.83562272  0.37880070    -0.85330
C216        C  0.42622812  0.84348403  0.35122927     1.02380
O217        O  0.43698910  0.87340124  0.34643857    -0.78090
O218        O  0.38055431  0.91224513  0.33436873    -0.78280
C219        C  0.35200974  0.92568100  0.34026635     1.02330
O220        O  0.38363711  0.96434139  0.42401706    -0.85600
O221        O  0.37000739  0.90955955  0.46536617    -0.82670
C222        C  0.39687536  0.90064450  0.48093959     0.97870
O223        O  0.42169400  0.88770411  0.46503844    -0.82700
O224        O  0.46516194  0.87318555  0.41145541    -0.85300
C225        C  0.48039380  0.89992598  0.40230055     1.02350
O226        O  0.46398601  0.92476490  0.39009316    -0.78120
O227        O  0.40867182  0.96628448  0.37408814    -0.78270
C228        C  0.39726448  0.98112107  0.40026984     1.02310
Cr229      Cr  0.36117913  0.91966660  0.41598336     1.93740
Cr230      Cr  0.41609497  0.86356955  0.42097812     1.93210
Cr231      Cr  0.42076669  0.91781596  0.36451766     1.39100
O232        O  0.39939617  0.90049934  0.40057218    -1.23360
O233        O  0.33239447  0.11964921  0.41534146    -0.85610
O234        O  0.34193795  0.06334608  0.37588829    -0.82650
C235        C  0.34568644  0.07519991  0.34624241     0.97850
O236        O  0.37316382  0.08985781  0.33819294    -0.82690
O237        O  0.43194349  0.12707493  0.34559696    -0.85330
C238        C  0.42264882  0.15720058  0.35132490     1.02380
O239        O  0.40888215  0.16476852  0.37932212    -0.78090
O240        O  0.37005515  0.15515501  0.43659412    -0.78280
C241        C  0.33971727  0.14813763  0.42815970     1.02330
O242        O  0.37217738  0.08900736  0.46824621    -0.85600
O243        O  0.38614388  0.03477232  0.42620089    -0.82670
C244        C  0.39702080  0.01857965  0.40071319     0.97870
O245        O  0.40503977  0.03415379  0.37368255    -0.82700
O246        O  0.46146681  0.07568117  0.38649315    -0.85300
C247        C  0.47829047  0.09976263  0.39986447     1.02350
O248        O  0.46352542  0.12634065  0.41041927    -0.78120
O249        O  0.42240561  0.11370303  0.46569663    -0.78270
C250        C  0.39890845  0.09967393  0.48253166     1.02310
Cr251      Cr  0.36143520  0.07851921  0.41998485     1.93740
Cr252      Cr  0.41629268  0.08292305  0.36428724     1.93210
Cr253      Cr  0.41479093  0.13672074  0.42137157     1.39100
O254        O  0.39775011  0.09931798  0.40216667    -1.23360
O255        O  0.62495770  0.93524127  0.34374006    -0.85610
O256        O  0.58679491  0.87754022  0.33551584    -0.82650
C257        C  0.57294264  0.84967458  0.34332514     0.97850
O258        O  0.56243752  0.84458803  0.37327336    -0.82690
O259        O  0.62103937  0.83605576  0.41011512    -0.85330
C260        C  0.64906002  0.84339086  0.42411929     1.02380
O261        O  0.65443850  0.87321243  0.43487222    -0.78090
O262        O  0.66269153  0.91113558  0.37715015    -0.78280
C263        C  0.65508567  0.92514773  0.34924828     1.02330
O264        O  0.57288327  0.96359364  0.38617400    -0.85600
O265        O  0.53206418  0.90836921  0.37368860    -0.82670
C266        C  0.51776788  0.89951742  0.40113834     0.97870
O267        O  0.53483191  0.88673940  0.42535393    -0.82700
O268        O  0.59169970  0.87332617  0.46575571    -0.85300
C269        C  0.60094498  0.90030759  0.48073924     1.02350
O270        O  0.61238769  0.92516754  0.46384685    -0.78120
O271        O  0.62483103  0.96564461  0.40719188    -0.78270
C272        C  0.59761531  0.98033786  0.39800107     1.02310
Cr273      Cr  0.58053734  0.91956378  0.36287367     1.93740
Cr274      Cr  0.57903006  0.86329480  0.41736510     1.93210
Cr275      Cr  0.63540938  0.91753733  0.41921912     1.39100
O276        O  0.59808592  0.90037823  0.40003261    -1.23360
O277        O  0.62031503  0.16212206  0.41130406    -0.85610
O278        O  0.56252155  0.15407917  0.37256762    -0.82650
C279        C  0.57187663  0.14812343  0.34238643     0.97850
O280        O  0.58514442  0.11993974  0.33476270    -0.82690
O281        O  0.62413708  0.06294579  0.34400126    -0.85330
C282        C  0.65417074  0.07318946  0.34985169     1.02380
O283        O  0.66135438  0.08754676  0.37769570    -0.78090
O284        O  0.65276705  0.12441177  0.43631635    -0.78280
C285        C  0.64794289  0.15438603  0.42597422     1.02330
O286        O  0.58901816  0.12417271  0.46555426    -0.85600
O287        O  0.53266960  0.11241436  0.42369437    -0.82670
C288        C  0.51584822  0.09932252  0.39946021     0.97870
O289        O  0.53063572  0.08902492  0.37282690    -0.82700
O290        O  0.57219022  0.03404645  0.38643804    -0.85300
C291        C  0.59723897  0.01755204  0.39805711     1.02350
O292        O  0.62421380  0.03258350  0.40712745    -0.78120
O293        O  0.61036972  0.07252168  0.46384053    -0.78270
C294        C  0.59859093  0.09729194  0.48061174     1.02310
Cr295      Cr  0.57767783  0.13499516  0.41698593     1.93740
Cr296      Cr  0.57939332  0.07814915  0.36275319     1.93210
Cr297      Cr  0.63389307  0.08058128  0.41956247     1.39100
O298        O  0.59667721  0.09773846  0.39994491    -1.23360
O299        O  0.61998424  0.83566816  0.58868662    -0.85610
O300        O  0.56255930  0.84504580  0.62641647    -0.82650
C301        C  0.57291650  0.85071384  0.65644040     0.97850
O302        O  0.58771910  0.87825455  0.66362591    -0.82690
O303        O  0.62600033  0.93582538  0.65505146    -0.85330
C304        C  0.65605077  0.92540869  0.64988870     1.02380
O305        O  0.66345119  0.91062180  0.62238043    -0.78090
O306        O  0.65484381  0.87206463  0.56464092    -0.78280
C307        C  0.64781308  0.84209258  0.57411991     1.02330
O308        O  0.59115413  0.87355669  0.53338241    -0.85600
O309        O  0.53482713  0.88760130  0.57360306    -0.82670
C310        C  0.51805388  0.89901138  0.59846955     0.97870
O311        O  0.53307016  0.90811127  0.62554696    -0.82700
O312        O  0.57411609  0.96409969  0.61226775    -0.85300
C313        C  0.59915926  0.98073896  0.60084415     1.02350
O314        O  0.62618766  0.96563994  0.59164837    -0.78120
O315        O  0.61344146  0.92478255  0.53515450    -0.78270
C316        C  0.60109851  0.90027458  0.51836003     1.02310
Cr317      Cr  0.57874597  0.86364786  0.58181149     1.93740
Cr318      Cr  0.58152148  0.92000384  0.63596370     1.93210
Cr319      Cr  0.63632789  0.91703066  0.57998118     1.39100
O320        O  0.59871138  0.90042935  0.59901540    -1.23360
O321        O  0.62686545  0.06419925  0.65504848    -0.85610
O322        O  0.58828504  0.12182087  0.66346217    -0.82650
C323        C  0.57320310  0.14914660  0.65576815     0.97850
O324        O  0.56207940  0.15371311  0.62586777    -0.82690
O325        O  0.61911500  0.16326541  0.58731354    -0.85330
C326        C  0.64703951  0.15640220  0.57308091     1.02380
O327        O  0.65336095  0.12645823  0.56316774    -0.78090
O328        O  0.66360614  0.08876029  0.62102406    -0.78280
C329        C  0.65674564  0.07462294  0.64904023     1.02330
O330        O  0.57451287  0.03476577  0.61357802    -0.85600
O331        O  0.53319140  0.09065469  0.62711306    -0.82670
C332        C  0.51776114  0.09925686  0.60012559     0.97870
O333        O  0.53412897  0.11013268  0.57468073    -0.82700
O334        O  0.58947307  0.12445148  0.53305412    -0.85300
C335        C  0.59909283  0.09757208  0.51821423     1.02350
O336        O  0.61170779  0.07327573  0.53513070    -0.78120
O337        O  0.62607026  0.03331021  0.59169411    -0.78270
C338        C  0.59921368  0.01821131  0.60123955     1.02310
Cr339      Cr  0.58196230  0.07934757  0.63661364     1.93740
Cr340      Cr  0.57785232  0.13477887  0.58151142     1.93210
Cr341      Cr  0.63553428  0.08172192  0.57934219     1.39100
O342        O  0.59831864  0.09842261  0.59898003    -1.23360
O343        O  0.33490253  0.08844270  0.62072279    -0.85610
O344        O  0.34512187  0.12686323  0.56385868    -0.82650
C345        C  0.35060672  0.15688360  0.57407864     0.97850
O346        O  0.37842213  0.16441705  0.58849587    -0.82690
O347        O  0.43599191  0.15476201  0.62734060    -0.85330
C348        C  0.42437029  0.15030094  0.65696587     1.02380
O349        O  0.40951989  0.12285870  0.66452007    -0.78090
O350        O  0.37131707  0.06488871  0.65600035    -0.78280
C351        C  0.34123717  0.07408197  0.64870726     1.02330
O352        O  0.37367939  0.03383375  0.59184804    -0.85600
O353        O  0.38800284  0.07503714  0.53630417    -0.82670
C354        C  0.40003146  0.09973420  0.51965482     0.97870
O355        O  0.40911798  0.12671999  0.53440420    -0.82700
O356        O  0.46380130  0.11178579  0.57572610    -0.85300
C357        C  0.48032684  0.10005008  0.60069575     1.02350
O358        O  0.46526583  0.09192659  0.62806583    -0.78120
O359        O  0.42455888  0.03559160  0.61536205    -0.78270
C360        C  0.40031830  0.01883463  0.60232510     1.02310
Cr361      Cr  0.36354685  0.08231361  0.57979962     1.93740
Cr362      Cr  0.42021440  0.13629355  0.58289900     1.93210
Cr363      Cr  0.41644822  0.08040628  0.63785611     1.39100
O364        O  0.40015360  0.09946887  0.60005103    -1.23360
O365        O  0.37388938  0.93552749  0.65592191    -0.85610
O366        O  0.41131597  0.87696482  0.66359102    -0.82650
C367        C  0.42517346  0.84912372  0.65560301     0.97850
O368        O  0.43515575  0.84417005  0.62544327    -0.82690
O369        O  0.37683175  0.83591523  0.58749848    -0.85330
C370        C  0.34854016  0.84397071  0.57432363     1.02380
O371        O  0.34303277  0.87418095  0.56495384    -0.78090
O372        O  0.33573337  0.91170062  0.62306408    -0.78280
C373        C  0.34372375  0.92554761  0.65094262     1.02330
O374        O  0.42528818  0.96428475  0.61374546    -0.85600
O375        O  0.46584445  0.90740145  0.62580374    -0.82670
C376        C  0.48056216  0.89858161  0.59860377     0.97870
O377        O  0.46362759  0.88687798  0.57383225    -0.82700
O378        O  0.40742500  0.87404217  0.53314697    -0.85300
C379        C  0.39713981  0.90067588  0.51839233     1.02350
O380        O  0.38457061  0.92509927  0.53520993    -0.78120
O381        O  0.37351300  0.96634084  0.59220010    -0.78270
C382        C  0.40046249  0.98121971  0.60198413     1.02310
Cr383      Cr  0.41772111  0.91940873  0.63646880     1.93740
Cr384      Cr  0.41912903  0.86350875  0.58139881     1.93210
Cr385      Cr  0.36252008  0.91805133  0.58044933     1.39100
O386        O  0.40002965  0.90059447  0.59910204    -1.23360
C387        C  0.73051297  0.75600913  0.49840494     0.00300
C388        C  0.75520693  0.73221694  0.49874575     0.00300
C389        C  0.23525625  0.49912458  0.74024514     0.00300
C390        C  0.25856057  0.49830178  0.76552407     0.00300
C391        C  0.49903006  0.23206220  0.74327296     0.00300
C392        C  0.49978696  0.25600590  0.76776922     0.00300
O393        O  0.58765485  0.66308248  0.12237597    -0.85610
O394        O  0.62515970  0.65511136  0.06400948    -0.82650
C395        C  0.65538580  0.65065487  0.07415039     0.97850
O396        O  0.66370190  0.62307311  0.08840526    -0.82690
O397        O  0.65616636  0.56565448  0.12746519    -0.85330
C398        C  0.64960165  0.57521044  0.15747106     1.02380
O399        O  0.62105578  0.58813305  0.16458015    -0.78090
O400        O  0.56294513  0.62539669  0.15522454    -0.78280
C401        C  0.57323766  0.65544582  0.15005861     1.02330
O402        O  0.53318061  0.62498459  0.09223171    -0.85600
O403        O  0.57418026  0.61211376  0.03618266    -0.82670
C404        C  0.59869827  0.59957770  0.01954300     0.97870
O405        O  0.62601956  0.59061369  0.03417093    -0.82700
O406        O  0.61481378  0.53507086  0.07540507    -0.85300
C407        C  0.60226944  0.51819261  0.09971726     1.02350
O408        O  0.59224849  0.53298511  0.12649384    -0.78120
O409        O  0.53540597  0.57294893  0.11228929    -0.78270
C410        C  0.51839325  0.59772459  0.10077328     1.02310
Cr411      Cr  0.58143253  0.63562770  0.08031410     1.93740
Cr412      Cr  0.63697453  0.58016775  0.08271348     1.93210
Cr413      Cr  0.57953770  0.58118207  0.13644819     1.39100
O414        O  0.59920367  0.59874582  0.09961700    -1.23360
O415        O  0.66527341  0.58585777  0.88297741    -0.85610
O416        O  0.65430242  0.62435407  0.93992618    -0.82650
C417        C  0.65151805  0.65393423  0.92787012     0.97850
O418        O  0.62450594  0.66263538  0.91253241    -0.82690
O419        O  0.56633839  0.65612622  0.87334075    -0.85330
C420        C  0.57577355  0.64971099  0.84330451     1.02380
O421        O  0.58986135  0.62175999  0.83649934    -0.78090
O422        O  0.62838067  0.56479372  0.84639479    -0.78280
C423        C  0.65855154  0.57325235  0.85418822     1.02330
O424        O  0.62515973  0.53258835  0.91170190    -0.85600
O425        O  0.60927303  0.57428569  0.96604809    -0.82670
C426        C  0.59804761  0.59957243  0.98231292     0.97870
O427        O  0.59064104  0.62695113  0.96714059    -0.82700
O428        O  0.53564932  0.61493449  0.92475330    -0.85300
C429        C  0.51913318  0.60188361  0.90035126     1.02350
O430        O  0.53432660  0.59154226  0.87381632    -0.78120
O431        O  0.57520879  0.53516586  0.88642924    -0.78270
C432        C  0.59890713  0.51815189  0.90009638     1.02310
Cr433      Cr  0.63529137  0.58073054  0.92332514     1.93740
Cr434      Cr  0.58090098  0.63693109  0.91812548     1.93210
Cr435      Cr  0.58319826  0.57991381  0.86411121     1.39100
O436        O  0.59955981  0.59893404  0.90190089    -1.23360
O437        O  0.34394725  0.56498656  0.12841656    -0.85610
O438        O  0.33519079  0.62252874  0.09008310    -0.82650
C439        C  0.34303558  0.65043972  0.07634913     0.97850
O440        O  0.37305344  0.65561754  0.06607813    -0.82690
O441        O  0.41110028  0.66223390  0.12435600    -0.85330
C442        C  0.42612030  0.65395609  0.15159073     1.02380
O443        O  0.43784768  0.62424761  0.15507738    -0.78090
O444        O  0.37994999  0.58737505  0.16501141    -0.78280
C445        C  0.35145850  0.57409307  0.15844647     1.02330
O446        O  0.38430782  0.53553002  0.07481834    -0.85600
O447        O  0.37221798  0.59145142  0.03473432    -0.82670
C448        C  0.39933508  0.60085790  0.02005122     0.97870
O449        O  0.42387781  0.61356791  0.03670610    -0.82700
O450        O  0.46583349  0.62511220  0.09269991    -0.85300
C451        C  0.48081513  0.59764932  0.10054055     1.02350
O452        O  0.46392233  0.57245850  0.11112176    -0.78120
O453        O  0.40719681  0.53291431  0.12580362    -0.78270
C454        C  0.39680871  0.51846785  0.09898075     1.02310
Cr455      Cr  0.36207823  0.58016187  0.08331959     1.93740
Cr456      Cr  0.41721877  0.63604304  0.08144186     1.93210
Cr457      Cr  0.42056025  0.58056652  0.13612012     1.39100
O458        O  0.40005068  0.59865874  0.09998583    -1.23360
O459        O  0.37229066  0.56546059  0.84559560    -0.85610
O460        O  0.41062635  0.62322766  0.83713075    -0.82650
C461        C  0.42527426  0.65079806  0.84465387     0.97850
O462        O  0.43613402  0.65572029  0.87453205    -0.82690
O463        O  0.37897152  0.66506411  0.91359487    -0.85330
C464        C  0.35075756  0.65754630  0.92708636     1.02380
O465        O  0.34470465  0.62749587  0.93675522    -0.78090
O466        O  0.33493600  0.58788978  0.88033232    -0.78280
C467        C  0.34204184  0.57418953  0.85220568     1.02330
O468        O  0.42411326  0.53583654  0.88665764    -0.85600
O469        O  0.46596871  0.59208181  0.87392475    -0.82670
C470        C  0.48147905  0.60148230  0.90065265     0.97870
O471        O  0.46508870  0.61308325  0.92574727    -0.82700
O472        O  0.41023704  0.62728220  0.96770259    -0.85300
C473        C  0.40000984  0.60083808  0.98274958     1.02350
O474        O  0.38709185  0.57642898  0.96632000    -0.78120
O475        O  0.37389007  0.53415057  0.91161426    -0.78270
C476        C  0.40014040  0.51921203  0.90043237     1.02310
Cr477      Cr  0.41697496  0.58081352  0.86421802     1.93740
Cr478      Cr  0.42082245  0.63692733  0.91899852     1.93210
Cr479      Cr  0.36350533  0.58288657  0.92200352     1.39100
O480        O  0.40056027  0.59994090  0.90195724    -1.23360
O481        O  0.58885906  0.33609302  0.87699661    -0.85610
O482        O  0.62607559  0.34555019  0.93515495    -0.82650
C483        C  0.65590890  0.35062324  0.92420240     0.97850
O484        O  0.66324000  0.37827631  0.90966620    -0.82690
O485        O  0.65426238  0.43597682  0.87166190    -0.85330
C486        C  0.64867694  0.42617815  0.84152411     1.02380
O487        O  0.62062384  0.41249222  0.83370421    -0.78090
O488        O  0.56394539  0.37274440  0.84294462    -0.78280
C489        C  0.57456767  0.34294658  0.84901644     1.02330
O490        O  0.53312015  0.37275030  0.90611930    -0.85600
O491        O  0.57317770  0.38759002  0.96253474    -0.82670
C492        C  0.59789041  0.39950355  0.97944690     0.97870
O493        O  0.62513465  0.40837392  0.96457145    -0.82700
O494        O  0.61179144  0.46410754  0.92323609    -0.85300
C495        C  0.59863938  0.48088361  0.89905965     1.02350
O496        O  0.58898581  0.46635308  0.87199127    -0.78120
O497        O  0.53443658  0.42452089  0.88531316    -0.78270
C498        C  0.51798056  0.39971477  0.89728995     1.02310
Cr499      Cr  0.58157440  0.36366779  0.91857445     1.93740
Cr500      Cr  0.63549972  0.42012926  0.91598803     1.93210
Cr501      Cr  0.57861388  0.41767488  0.86162268     1.39100
O502        O  0.59842554  0.40071695  0.89880666    -1.23360
O503        O  0.65499321  0.43392700  0.12543853    -0.85610
O504        O  0.66160348  0.37606027  0.08693365    -0.82650
C505        C  0.65333004  0.34887563  0.07197618     0.97850
O506        O  0.62323914  0.34486528  0.06109128    -0.82690
O507        O  0.58494554  0.33534535  0.11857267    -0.85330
C508        C  0.57129118  0.34219669  0.14680467     1.02380
O509        O  0.56290728  0.37243443  0.15394971    -0.78090
O510        O  0.62158478  0.40957521  0.16275343    -0.78280
C511        C  0.64942547  0.42391261  0.15551029     1.02330
O512        O  0.61324154  0.46410883  0.07412891    -0.85600
O513        O  0.62485414  0.40800914  0.03228036    -0.82670
C514        C  0.59756766  0.39981316  0.01705061     0.97870
O515        O  0.57219574  0.38911328  0.03371361    -0.82700
O516        O  0.53138700  0.37537207  0.09006261    -0.85300
C517        C  0.51691343  0.40195627  0.10091975     1.02350
O518        O  0.53425263  0.42603760  0.11336913    -0.78120
O519        O  0.59192997  0.46544102  0.12592214    -0.78270
C520        C  0.60173315  0.48066732  0.09920764     1.02310
Cr521      Cr  0.63542548  0.41898398  0.08096870     1.93740
Cr522      Cr  0.57934917  0.36436021  0.07752671     1.93210
Cr523      Cr  0.57920547  0.41709148  0.13572896     1.39100
O524        O  0.59771509  0.40039549  0.09791436    -1.23360
O525        O  0.43459838  0.37281341  0.84431651    -0.85610
O526        O  0.37723213  0.41172839  0.83583226    -0.82650
C527        C  0.34952395  0.42591474  0.84368174     0.97850
O528        O  0.34477554  0.43685708  0.87352282    -0.82690
O529        O  0.33516939  0.37958972  0.91193924    -0.85330
C530        C  0.34213197  0.35160084  0.92607013     1.02380
O531        O  0.37219259  0.34535624  0.93600170    -0.78090
O532        O  0.41004240  0.33621048  0.87848990    -0.78280
C533        C  0.42471439  0.34287616  0.85076505     1.02330
O534        O  0.46407186  0.42478263  0.88610679    -0.85600
O535        O  0.40921300  0.46667542  0.87293969    -0.82670
C536        C  0.40024748  0.48168982  0.89998471     0.95950
O537        O  0.38782229  0.46509483  0.92465988    -0.82700
O538        O  0.37385825  0.40915959  0.96624549    -0.85300
C539        C  0.40042929  0.39882433  0.98141278     1.02350
O540        O  0.42511851  0.38675775  0.96471190    -0.78120
O541        O  0.46546328  0.37333534  0.90801364    -0.78270
C542        C  0.48059976  0.39995603  0.89802407     1.02310
Cr543      Cr  0.41962491  0.41770005  0.86300616     1.93740
Cr544      Cr  0.36360435  0.42107316  0.91780162     1.93210
Cr545      Cr  0.41695894  0.36370965  0.92018379     1.39100
O546        O  0.40029296  0.40103959  0.90055145    -1.23360
O547        O  0.40942294  0.33723312  0.12416007    -0.85610
O548        O  0.37181738  0.34415198  0.06553634    -0.82650
C549        C  0.34157292  0.35017476  0.07487773     0.97850
O550        O  0.33409225  0.37835967  0.08816160    -0.82690
O551        O  0.34255525  0.43624795  0.12558708    -0.85330
C552        C  0.34765935  0.42611185  0.15575260     1.02380
O553        O  0.37550969  0.41198650  0.16362987    -0.78090
O554        O  0.43455269  0.37525548  0.15606828    -0.78280
C555        C  0.42378569  0.34536277  0.15179882     1.02330
O556        O  0.46443762  0.37458781  0.09322625    -0.85600
O557        O  0.42417338  0.38574299  0.03616156    -0.82670
C558        C  0.39983784  0.39812958  0.01899370     0.97870
O559        O  0.37270576  0.40772774  0.03350115    -0.82700
O560        O  0.38528606  0.46438366  0.07373750    -0.85300
C561        C  0.39656315  0.48120248  0.09873676     1.02350
O562        O  0.40531039  0.46646703  0.12596911    -0.78120
O563        O  0.46245656  0.42670190  0.11337263    -0.78270
C564        C  0.47931549  0.40188618  0.10176873     1.02310
Cr565      Cr  0.41616671  0.36354541  0.08125525     1.93740
Cr566      Cr  0.36183093  0.42010723  0.08156385     1.93210
Cr567      Cr  0.41787736  0.41876600  0.13658825     1.39100
O568        O  0.39886077  0.40103958  0.09948215    -1.23360
C569        C  0.73841037  0.50161849  0.76307845     0.00300
C570        C  0.76111883  0.50233693  0.73724278     0.00300
C571        C  0.99609453  0.23665504  0.24002860     0.00300
C572        C  0.99674759  0.25834535  0.26659761     0.00300
C573        C  0.75869347  0.26329910  0.49973532     0.00300
C574        C  0.73177198  0.24185061  0.49988468     0.00300
C575        C  0.73283650  0.49983623  0.24225214     0.00300
C576        C  0.76193060  0.49923034  0.26076709     0.00300
O577        O  0.16430323  0.58878707  0.37924539    -0.85610
O578        O  0.15463711  0.62780678  0.43606396    -0.82650
C579        C  0.14771725  0.65759124  0.42602652     0.97850
O580        O  0.11922789  0.66420462  0.41259164    -0.82690
O581        O  0.06156100  0.65354224  0.37484489    -0.85330
C582        C  0.07260847  0.64927696  0.34498043     1.02380
O583        O  0.08738931  0.62190031  0.33709532    -0.78090
O584        O  0.12666224  0.56486304  0.34569290    -0.78280
C585        C  0.15665505  0.57512521  0.35119433     1.02330
O586        O  0.12716766  0.53378603  0.41079376    -0.85600
O587        O  0.11365627  0.57513951  0.46595408    -0.82670
C588        C  0.10112030  0.59955705  0.48259373     0.97870
O589        O  0.09069879  0.62597905  0.46747856    -0.82700
O590        O  0.03470035  0.61039889  0.42629658    -0.85300
C591        C  0.01814664  0.59806344  0.40151173     1.02350
O592        O  0.03317193  0.58924882  0.37449028    -0.78120
O593        O  0.07600633  0.53502576  0.38754318    -0.78270
C594        C  0.10054216  0.51871063  0.40059489     1.02310
Cr595      Cr  0.13666049  0.58265560  0.42137547     1.93740
Cr596      Cr  0.07827122  0.63528998  0.41901121     1.93210
Cr597      Cr  0.08213701  0.57941936  0.36443343     1.39100
O598        O  0.09890442  0.59887899  0.40180417    -1.23360
O599        O  0.87888126  0.58788360  0.33536112    -0.85610
O600        O  0.93681915  0.62546213  0.34544264    -0.82650
C601        C  0.92599560  0.65540660  0.34962546     0.97850
O602        O  0.91181703  0.66370153  0.37723432    -0.82690
O603        O  0.87308108  0.65622376  0.43488491    -0.85330
C604        C  0.84313473  0.65123966  0.42413226     1.02380
O605        O  0.83543982  0.62346640  0.41004493    -0.78090
O606        O  0.84352495  0.56557060  0.37240540    -0.78280
C607        C  0.85046961  0.57449051  0.34224949     1.02330
O608        O  0.90727466  0.53366024  0.37450438    -0.85600
O609        O  0.96383943  0.57417261  0.38908579    -0.82670
C610        C  0.98070691  0.59870365  0.40138515     0.97870
O611        O  0.96608681  0.62606414  0.40970590    -0.82700
O612        O  0.92408012  0.61363381  0.46451400    -0.85300
C613        C  0.89907874  0.60198257  0.48105197     1.02350
O614        O  0.87203411  0.59282492  0.46587963    -0.78120
O615        O  0.88417611  0.53595251  0.42536896    -0.78270
C616        C  0.89641087  0.51892610  0.40097181     1.02310
Cr617      Cr  0.92008573  0.58167188  0.36430918     1.93740
Cr618      Cr  0.91739591  0.63672836  0.41993263     1.93210
Cr619      Cr  0.86207036  0.58099628  0.41721027     1.39100
O620        O  0.90001641  0.59953673  0.40069327    -1.23360
O621        O  0.93515893  0.62976492  0.65465437    -0.85610
O622        O  0.87874803  0.59027146  0.66475826    -0.82650
C623        C  0.85051537  0.57672242  0.65741393     0.97850
O624        O  0.84451961  0.56681914  0.62742805    -0.82690
O625        O  0.83568368  0.62441513  0.58930322    -0.85330
C626        C  0.84301373  0.65182593  0.57433878     1.02380
O627        O  0.87275632  0.65660334  0.56297617    -0.78090
O628        O  0.91182037  0.66688256  0.61988537    -0.78280
C629        C  0.92490389  0.65957515  0.64835537     1.02330
O630        O  0.96478519  0.57824724  0.61286196    -0.85600
O631        O  0.91005521  0.53617120  0.62635729    -0.82670
C632        C  0.89932965  0.52126885  0.59987450     0.97870
O633        O  0.88582847  0.53781914  0.57570377    -0.82700
O634        O  0.87226562  0.59351717  0.53395510    -0.85300
C635        C  0.89925567  0.60216258  0.51855924     1.02350
O636        O  0.92446189  0.61371956  0.53492063    -0.78120
O637        O  0.96644978  0.62895960  0.58943350    -0.78270
C638        C  0.98137780  0.60238301  0.59961993     1.02310
Cr639      Cr  0.92053210  0.58494083  0.63640690     1.93740
Cr640      Cr  0.86286895  0.58226880  0.58284186     1.93210
Cr641      Cr  0.91753352  0.63831801  0.57856946     1.39100
O642        O  0.90052822  0.60161926  0.59920112    -1.23360
O643        O  0.06595291  0.65546269  0.62853040    -0.85610
O644        O  0.12394992  0.66298777  0.59082285    -0.82650
C645        C  0.15152626  0.65531328  0.57630917     0.97850
O646        O  0.15636350  0.62535286  0.56584273    -0.82690
O647        O  0.16387942  0.58668450  0.62342157    -0.85330
C648        C  0.15578972  0.57286182  0.65126322     1.02380
O649        O  0.12567284  0.56260073  0.65619772    -0.78090
O650        O  0.08752644  0.62004008  0.66600280    -0.78280
C651        C  0.07475544  0.64859706  0.65872232     1.02330
O652        O  0.03583132  0.61514923  0.57632901    -0.85600
O653        O  0.09254683  0.62661080  0.53530742    -0.82670
C654        C  0.10146598  0.59963666  0.52010657     0.97870
O655        O  0.11315067  0.57465527  0.53660418    -0.82700
O656        O  0.12561734  0.53282266  0.59144360    -0.85300
C657        C  0.09806877  0.51851096  0.59987139     1.02350
O658        O  0.07391690  0.53533980  0.61272552    -0.78120
O659        O  0.03329044  0.59069504  0.62669860    -0.78270
C660        C  0.01880159  0.60179253  0.60018132     1.02310
Cr661      Cr  0.08112484  0.63674653  0.58399079     1.93740
Cr662      Cr  0.13653498  0.58127354  0.58106281     1.93210
Cr663      Cr  0.08157446  0.57884669  0.63718419     1.39100
O664        O  0.09945843  0.59879395  0.60058271    -1.23360
O665        O  0.87322621  0.34575207  0.43865326    -0.85610
O666        O  0.90993404  0.33627316  0.38031806    -0.82650
C667        C  0.92310292  0.34323017  0.35187579     0.97850
O668        O  0.93258441  0.37325409  0.34515216    -0.82690
O669        O  0.87441094  0.41044171  0.33697099    -0.85330
C670        C  0.84639774  0.42416038  0.34448688     1.02380
O671        O  0.84109668  0.43463829  0.37441281    -0.78090
O672        O  0.83468017  0.37697832  0.41316063    -0.78280
C673        C  0.84321926  0.34959311  0.42765681     1.02330
O674        O  0.92460871  0.38948298  0.46486529    -0.85600
O675        O  0.96462127  0.37544873  0.40810075    -0.82670
C676        C  0.97919095  0.40216827  0.39766499     0.97870
O677        O  0.96192883  0.42655614  0.38574183    -0.82700
O678        O  0.90464648  0.46634705  0.37374042    -0.85300
C679        C  0.89549955  0.48143371  0.40075151     1.02350
O680        O  0.88341436  0.46489317  0.42552392    -0.78120
O681        O  0.87229237  0.40957941  0.46715205    -0.78270
C682        C  0.89989214  0.40140510  0.48166509     1.02310
Cr683      Cr  0.91674483  0.36490599  0.42136400     1.93740
Cr684      Cr  0.91686896  0.41794469  0.36361896     1.93210
Cr685      Cr  0.86101692  0.41994773  0.41872548     1.39100
O686        O  0.89848965  0.40122450  0.40145533    -1.23360
O687        O  0.16179560  0.37654574  0.41006035    -0.85610
O688        O  0.15471851  0.43471758  0.37229541    -0.82650
C689        C  0.14859137  0.42595169  0.34196585     0.97850
O690        O  0.12009567  0.41326889  0.33403309    -0.82690
O691        O  0.06228172  0.37520357  0.34238283    -0.85330
C692        C  0.07258884  0.34517034  0.34750289     1.02380
O693        O  0.08657659  0.33733441  0.37540958    -0.78090
O694        O  0.12347411  0.34440223  0.43439941    -0.78280
C695        C  0.15373869  0.34905630  0.42453666     1.02330
O696        O  0.12408838  0.40769473  0.46459295    -0.85600
O697        O  0.11342902  0.46434715  0.42366604    -0.82670
C698        C  0.10033829  0.48145564  0.39968502     0.97870
O699        O  0.08978671  0.46724916  0.37282114    -0.82700
O700        O  0.03360112  0.42680469  0.38520290    -0.85300
C701        C  0.01673689  0.40201987  0.39675481     1.02350
O702        O  0.03159939  0.37478769  0.40530858    -0.78120
O703        O  0.07193413  0.38720404  0.46232589    -0.78270
C704        C  0.09677072  0.39885398  0.47931751     1.02310
Cr705      Cr  0.13524800  0.41930700  0.41630318     1.93740
Cr706      Cr  0.07810113  0.41921209  0.36184107     1.93210
Cr707      Cr  0.07973699  0.36414810  0.41773885     1.39100
O708        O  0.09749943  0.40124168  0.39884254    -1.23360
O709        O  0.93093506  0.34571184  0.62844178    -0.85610
O710        O  0.87352195  0.33877428  0.58861623    -0.82650
C711        C  0.84666136  0.34706549  0.57287076     0.97850
O712        O  0.84339513  0.37677725  0.56119447    -0.82690
O713        O  0.83268603  0.41586979  0.61784064    -0.85330
C714        C  0.83941291  0.42869398  0.64652239     1.02380
O715        O  0.86954809  0.43732161  0.65431284    -0.78090
O716        O  0.90940135  0.38134507  0.66539465    -0.78280
C717        C  0.92256595  0.35292526  0.65857943     1.02330
O718        O  0.96249428  0.38574032  0.57738256    -0.85600
O719        O  0.90802155  0.37431280  0.53427794    -0.82670
C720        C  0.90049540  0.40155098  0.51889184     0.97870
O721        O  0.88878582  0.42678700  0.53487376    -0.82700
O722        O  0.87241521  0.46918877  0.58844827    -0.85300
C723        C  0.89872099  0.48390505  0.59960251     1.02350
O724        O  0.92238661  0.46714596  0.61354611    -0.78120
O725        O  0.96389998  0.41204797  0.62693823    -0.78270
C726        C  0.97892428  0.40009509  0.60107055     1.02310
Cr727      Cr  0.91706144  0.36451807  0.58350182     1.93740
Cr728      Cr  0.86261603  0.42066527  0.57750873     1.93210
Cr729      Cr  0.91493343  0.42274011  0.63667694     1.39100
O730        O  0.89844530  0.40280535  0.59925639    -1.23360
O731        O  0.12542323  0.34573546  0.56312673    -0.85610
O732        O  0.08632342  0.33536474  0.61992140    -0.82650
C733        C  0.07318319  0.34268708  0.64826339     0.97850
O734        O  0.06378989  0.37267613  0.65457368    -0.82690
O735        O  0.12145841  0.41156380  0.66223884    -0.85330
C736        C  0.14859486  0.42683530  0.65414310     1.02380
O737        O  0.15226785  0.43822667  0.62432999    -0.78090
O738        O  0.16216869  0.38114398  0.58615572    -0.78280
C739        C  0.15549888  0.35290605  0.57256392     1.02330
O740        O  0.07212431  0.38685452  0.53367615    -0.85600
O741        O  0.03132910  0.37349188  0.58941390    -0.82670
C742        C  0.01638282  0.39971162  0.60063337     0.97870
O743        O  0.03296400  0.42375227  0.61416386    -0.82700
O744        O  0.08813197  0.46603732  0.62611694    -0.85300
C745        C  0.09663469  0.48133661  0.59912613     1.02350
O746        O  0.10799943  0.46513645  0.57377811    -0.78120
O747        O  0.12304815  0.40979102  0.53196281    -0.78270
C748        C  0.09652271  0.39932386  0.51690034     1.02310
Cr749      Cr  0.08013544  0.36364453  0.57820441     1.93740
Cr750      Cr  0.07818804  0.41720568  0.63596046     1.93210
Cr751      Cr  0.13308836  0.42181601  0.58037074     1.39100
O752        O  0.09683379  0.40099407  0.59797301    -1.23360
C753        C  0.77588674  0.46715199  0.27495872    -0.05720
C754        C  0.80700066  0.45478390  0.26239920    -0.33150
C755        C  0.82927337  0.43674871  0.28375408     0.36100
C756        C  0.82029844  0.43120297  0.31809714    -0.06080
C757        C  0.78678438  0.43840035  0.32852703    -0.33050
C758        C  0.76455727  0.45641998  0.30716014     0.36000
H759        H  0.81564921  0.46231681  0.23729734     0.16370
O760        O  0.86117963  0.42863651  0.27202400    -0.60550
H761        H  0.77880392  0.43283683  0.35437639     0.16390
O762        O  0.73298048  0.46611548  0.31885064    -0.60650
H763        H  0.73702402  0.47849979  0.34050250     0.43380
H764        H  0.85887354  0.40538098  0.26250776     0.43340
C765        C  0.77971455  0.53044739  0.27290475    -0.05720
C766        C  0.81362537  0.53569006  0.26253903    -0.33150
C767        C  0.83666773  0.55332695  0.28337195     0.36100
C768        C  0.82569615  0.56617822  0.31498414    -0.06080
C769        C  0.79070850  0.56539311  0.32276088    -0.33050
C770        C  0.76763907  0.54764598  0.30188143     0.36000
H771        H  0.82317578  0.52305833  0.23997288     0.16370
O772        O  0.87055027  0.55380301  0.27469287    -0.60550
H773        H  0.78165880  0.57630172  0.34644021     0.16390
O774        O  0.73387177  0.54525291  0.31096193    -0.60650
H775        H  0.73342785  0.53771194  0.33508371     0.43380
H776        H  0.87358381  0.57498426  0.26128343     0.43340
C777        C  0.81781599  0.32272713  0.43490196    -0.05720
C778        C  0.78342972  0.33151374  0.43938917    -0.33150
C779        C  0.76107202  0.30911331  0.45591007     0.36100
C780        C  0.77318258  0.27758070  0.46794955    -0.06080
C781        C  0.80579360  0.26669304  0.45840032    -0.33050
C782        C  0.82836487  0.28918196  0.44249455     0.36000
H783        H  0.77465587  0.35694418  0.43327298     0.16370
O784        O  0.72907106  0.32017799  0.46461351    -0.60550
H785        H  0.81518167  0.24218491  0.46689679     0.16390
O786        O  0.86127338  0.27883838  0.43645906    -0.60650
H787        H  0.87277412  0.27914843  0.45902754     0.43380
H788        H  0.71669952  0.32300533  0.44270919     0.43340
C789        C  0.77416100  0.27757905  0.53126216    -0.05720
C790        C  0.76342220  0.31002151  0.54133409    -0.33150
C791        C  0.78610013  0.33231339  0.55751922     0.36100
C792        C  0.81976903  0.32173631  0.56496533    -0.06080
C793        C  0.82866652  0.28760783  0.55954173    -0.33050
C794        C  0.80611969  0.26553210  0.54263484     0.36000
H795        H  0.73881227  0.31954443  0.53303964     0.16370
O796        O  0.77576914  0.36503054  0.56408618    -0.60550
H797        H  0.85426089  0.27886594  0.56533546     0.16390
O798        O  0.81725091  0.23380069  0.53331980    -0.60650
H799        H  0.82140121  0.22144518  0.55499477     0.43380
H800        H  0.77615210  0.37684468  0.54171908     0.43340
C801        C  0.02866379  0.27472268  0.27852024    -0.05720
C802        C  0.04434742  0.26228354  0.30817567    -0.33150
C803        C  0.06251898  0.28421996  0.32968193     0.36100
C804        C  0.06491239  0.31906206  0.32138540    -0.06080
C805        C  0.05435230  0.32982074  0.28882021    -0.33050
C806        C  0.03612825  0.30787999  0.26743003     0.36000
H807        H  0.03943838  0.23649002  0.31652212     0.16370
O808        O  0.07413568  0.27213534  0.36038024    -0.60550
H809        H  0.05747406  0.35612346  0.28110640     0.16390
O810        O  0.02318703  0.31972155  0.23706725    -0.60650
H811        H  0.00785229  0.33891011  0.24296527     0.43380
H812        H  0.09822971  0.26563474  0.35624443     0.43340
C813        C  0.96543243  0.27097559  0.28361837    -0.05720
C814        C  0.94996018  0.30034239  0.27044199    -0.33150
C815        C  0.93296219  0.32295215  0.29203791     0.36100
C816        C  0.93073655  0.31587221  0.32720500    -0.06080
C817        C  0.94117924  0.28384395  0.33915156    -0.33050
C818        C  0.95886795  0.26151071  0.31759616     0.36000
H819        H  0.95431795  0.30766473  0.24420259     0.16370
O820        O  0.92122381  0.35318804  0.27904517    -0.60550
H821        H  0.93877060  0.27750153  0.36592691     0.16390
O822        O  0.97182360  0.23161186  0.33036215    -0.60650
H823        H  0.98715286  0.23809073  0.34945330     0.43380
H824        H  0.89651097  0.34950666  0.27494266     0.43340
C825        C  0.77093233  0.47147532  0.71782491    -0.05720
C826        C  0.76117599  0.46944675  0.68340567    -0.33150
C827        C  0.78147748  0.45207041  0.65985732     0.36100
C828        C  0.81189663  0.43647406  0.67086714    -0.06080
C829        C  0.81864711  0.43405682  0.70595163    -0.33050
C830        C  0.79819736  0.45136892  0.72956385     0.36000
H831        H  0.73991460  0.48446856  0.67412980     0.16370
O832        O  0.77388281  0.45459546  0.62580440    -0.60550
H833        H  0.84134871  0.42097365  0.71482626     0.16390
O834        O  0.80615686  0.45057034  0.76371247    -0.60650
H835        H  0.83095093  0.45528500  0.76563601     0.43380
H836        H  0.75952211  0.43443714  0.62073397     0.43340
C837        C  0.77887095  0.53386348  0.72609731    -0.05720
C838        C  0.76721771  0.54978763  0.69629244    -0.33150
C839        C  0.78987647  0.56735725  0.67519883     0.36100
C840        C  0.82476123  0.56938734  0.68397157    -0.06080
C841        C  0.83515978  0.55838369  0.71640839    -0.33050
C842        C  0.81241351  0.54030512  0.73741878     0.36000
H843        H  0.74144701  0.54526861  0.68732373     0.16370
O844        O  0.77830498  0.57957084  0.64450456    -0.60550
H845        H  0.86167556  0.56061210  0.72400709     0.16390
O846        O  0.82363166  0.52680438  0.76775634    -0.60650
H847        H  0.84430431  0.51331422  0.76232595     0.43380
H848        H  0.77451391  0.60423443  0.64823175     0.43340
C849        C  0.67494480  0.43225717  0.18225146    -0.05720
C850        C  0.70832170  0.44071188  0.17221930    -0.33150
C851        C  0.72996177  0.45886246  0.19405083     0.36100
C852        C  0.71836729  0.46859487  0.22649717    -0.06080
C853        C  0.68715811  0.45571513  0.23836230    -0.33050
C854        C  0.66543914  0.43750018  0.21651836     0.36000
H855        H  0.71671938  0.43578912  0.14638652     0.16370
O856        O  0.76123688  0.46961327  0.18250377    -0.60550
H857        H  0.67821508  0.46243535  0.26355758     0.16390
O858        O  0.63359021  0.42857152  0.22783609    -0.60650
H859        H  0.63611097  0.40499050  0.23650254     0.43380
H860        H  0.75640595  0.48577324  0.16365812     0.43340
C861        C  0.67462632  0.43386983  0.81531383    -0.05720
C862        C  0.66443382  0.44512569  0.78289749    -0.33150
C863        C  0.68723977  0.46349632  0.76228515     0.36100
C864        C  0.72062596  0.47005995  0.77399157    -0.06080
C865        C  0.73211851  0.45401398  0.80378679    -0.33050
C866        C  0.70939835  0.43605540  0.82446600     0.36000
H867        H  0.63799390  0.44288806  0.77504225     0.16370
O868        O  0.67606947  0.47731501  0.73209239    -0.60550
H869        H  0.75777034  0.45865661  0.81303994     0.16390
O870        O  0.72074511  0.42361954  0.85515436    -0.60650
H871        H  0.72460950  0.39899242  0.85126371     0.43380
H872        H  0.65712746  0.49291486  0.73813638     0.43340
C873        C  0.72817743  0.53242038  0.78236767    -0.05720
C874        C  0.73802200  0.53479868  0.81674209    -0.33150
C875        C  0.71719333  0.55145106  0.84041754     0.36100
C876        C  0.68603761  0.56576671  0.82961666    -0.06080
C877        C  0.67883788  0.56752813  0.79456309    -0.33050
C878        C  0.70006955  0.55148323  0.77089125     0.36000
H879        H  0.75980336  0.52045505  0.82590488     0.16370
O880        O  0.72517004  0.54937076  0.87441119    -0.60550
H881        H  0.65536958  0.57921238  0.78572257     0.16390
O882        O  0.69067924  0.55085152  0.73721796    -0.60650
H883        H  0.69822508  0.57305313  0.72786450     0.43380
H884        H  0.73893591  0.56999640  0.87922937     0.43340
C885        C  0.71727923  0.53183454  0.22963680    -0.05720
C886        C  0.73084171  0.54654917  0.20008858    -0.33150
C887        C  0.70953606  0.56397347  0.17732111     0.36100
C888        C  0.67450670  0.56764486  0.18474880    -0.06080
C889        C  0.66255814  0.55803852  0.21703246    -0.33050
C890        C  0.68378012  0.54014333  0.23948216     0.36000
H891        H  0.75689166  0.54109168  0.19268360     0.16370
O892        O  0.72263576  0.57543823  0.14698315    -0.60550
H893        H  0.63587595  0.56120069  0.22351819     0.16390
O894        O  0.67033425  0.52721729  0.26902315    -0.60650
H895        H  0.66865986  0.54688248  0.28474240     0.43380
H896        H  0.72550985  0.55484957  0.13265814     0.43340
C897        C  0.46852416  0.27035832  0.78340111    -0.05720
C898        C  0.46075467  0.26069350  0.81691148    -0.33150
C899        C  0.44346934  0.28298068  0.83865709     0.36100
C900        C  0.43347742  0.31533435  0.82668645    -0.06080
C901        C  0.43735315  0.32299551  0.79191508    -0.33050
C902        C  0.45439327  0.30050359  0.77018006     0.36000
H903        H  0.47145115  0.23749019  0.82736740     0.16370
O904        O  0.43988070  0.27434340  0.87235341    -0.60550
H905        H  0.42924950  0.34748364  0.78208458     0.16390
O906        O  0.46054186  0.31002157  0.73713703    -0.60650
H907        H  0.43983139  0.30311877  0.72431471     0.43380
H908        H  0.46152855  0.28143705  0.88344551     0.43340
C909        C  0.53196590  0.27074694  0.78093056    -0.05720
C910        C  0.54391726  0.25956532  0.81272964    -0.33150
C911        C  0.56138127  0.28190925  0.83439964     0.36100
C912        C  0.56705668  0.31581632  0.82399709    -0.06080
C913        C  0.55975518  0.32502146  0.79012619    -0.33050
C914        C  0.54260028  0.30255360  0.76849661     0.36000
H915        H  0.53608612  0.23496477  0.82244328     0.16370
O916        O  0.56940829  0.27139883  0.86679731    -0.60550
H917        H  0.56484355  0.35064016  0.78123584     0.16390
O918        O  0.53241441  0.31358913  0.73691231    -0.60650
H919        H  0.55136384  0.30738781  0.72141309     0.43380
H920        H  0.54829147  0.27476953  0.88028781     0.43340
C921        C  0.27448351  0.46630643  0.77746293    -0.05720
C922        C  0.30640257  0.45753635  0.76386140    -0.33150
C923        C  0.33081693  0.44105097  0.78413258     0.36100
C924        C  0.32273746  0.43248255  0.81803222    -0.06080
C925        C  0.28893684  0.43620976  0.82930972    -0.33050
C926        C  0.26475808  0.45289277  0.80914360     0.36000
H927        H  0.31387650  0.46719080  0.73911585     0.16370
O928        O  0.36334041  0.43701677  0.77189875    -0.60550
H929        H  0.28199612  0.42889183  0.85502782     0.16390
O930        O  0.23329382  0.46017719  0.82252007    -0.60650
H931        H  0.22132554  0.43799276  0.82402171     0.43380
H932        H  0.37505027  0.45891486  0.77657722     0.43340
C933        C  0.27217236  0.52945764  0.78213000    -0.05720
C934        C  0.26108699  0.53719755  0.81523994    -0.33150
C935        C  0.28235284  0.55484933  0.83792957     0.36100
C936        C  0.31499949  0.56543244  0.82725461    -0.06080
C937        C  0.32382675  0.56190687  0.79271114    -0.33050
C938        C  0.30269167  0.54391546  0.77018369     0.36000
H939        H  0.23744081  0.52650759  0.82465726     0.16370
O940        O  0.27236424  0.55849524  0.87122058    -0.60550
H941        H  0.34842784  0.57075943  0.78375137     0.16390
O942        O  0.31314079  0.53831631  0.73726998    -0.60650
H943        H  0.33458695  0.52500800  0.73899382     0.43380
H944        H  0.27929530  0.53706295  0.88268832     0.43340
C945        C  0.22026069  0.46803330  0.72477603    -0.05720
C946        C  0.23121775  0.45883018  0.69211725    -0.33150
C947        C  0.20892023  0.44257184  0.66948016     0.36100
C948        C  0.17532245  0.43456089  0.67979555    -0.06080
C949        C  0.16632017  0.43915564  0.71408238    -0.33050
C950        C  0.18862144  0.45581793  0.73659896     0.36000
H951        H  0.25570712  0.46765382  0.68284521     0.16370
O952        O  0.21953730  0.43643069  0.63673040    -0.60550
H953        H  0.14085670  0.43276357  0.72270234     0.16390
O954        O  0.17756729  0.46387325  0.76872776    -0.60650
H955        H  0.17558715  0.44183466  0.78089161     0.43380
H956        H  0.21905127  0.45887420  0.62512378     0.43340
C957        C  0.18153992  0.56580010  0.67790993    -0.05720
C958        C  0.17039407  0.56089881  0.71162068    -0.33150
C959        C  0.19095738  0.54395833  0.73525571     0.36100
C960        C  0.22280939  0.53127865  0.72507057    -0.06080
C961        C  0.23615898  0.54105591  0.69336181    -0.33050
C962        C  0.21563741  0.55811785  0.66959608     0.36000
H963        H  0.14457949  0.56761771  0.71885632     0.16370
O964        O  0.17786875  0.53594057  0.76663039    -0.60550
H965        H  0.26088154  0.53166536  0.68539231     0.16390
O966        O  0.22791591  0.56365097  0.63734241    -0.60650
H967        H  0.22390373  0.54205549  0.62488133     0.43380
H968        H  0.18786146  0.55290508  0.78246167     0.43340
C969        C  0.77097038  0.71891753  0.46713758    -0.05720
C970        C  0.80316152  0.73133645  0.45791754    -0.33150
C971        C  0.82606533  0.71065497  0.44027969     0.36100
C972        C  0.81668951  0.67706131  0.43156613    -0.06080
C973        C  0.78252729  0.66704054  0.43556774    -0.33050
C974        C  0.75962914  0.68778712  0.45357924     0.36000
H975        H  0.81186187  0.75567792  0.46753941     0.16370
O976        O  0.85852317  0.72242866  0.43457018    -0.60550
H977        H  0.77440797  0.64185436  0.42779706     0.16390
O978        O  0.72695381  0.67674954  0.45986780    -0.60650
H979        H  0.72901762  0.65353677  0.46958195     0.43380
H980        H  0.85848223  0.73031724  0.41055087     0.43340
C981        C  0.77058335  0.71902236  0.53066070    -0.05720
C982        C  0.80285805  0.73141177  0.53978057    -0.33150
C983        C  0.82576289  0.71092726  0.55767830     0.36100
C984        C  0.81641777  0.67742989  0.56665807    -0.06080
C985        C  0.78222479  0.66735443  0.56269961    -0.33050
C986        C  0.75923024  0.68801654  0.54448023     0.36000
H987        H  0.81170600  0.75554289  0.52977405     0.16370
O988        O  0.85825496  0.72273859  0.56327026    -0.60550
H989        H  0.77416180  0.64222346  0.57071653     0.16390
O990        O  0.72645321  0.67709851  0.53836307    -0.60650
H991        H  0.72827727  0.65360407  0.52936018     0.43380
H992        H  0.85841711  0.73057628  0.58729166     0.43340
C993        C  0.43165019  0.17634648  0.68316098    -0.05720
C994        C  0.43599793  0.16659971  0.71735540    -0.33150
C995        C  0.45346579  0.18789599  0.74007752     0.36100
C996        C  0.46683366  0.21901381  0.72847127    -0.06080
C997        C  0.45741207  0.23106877  0.69621382    -0.33050
C998        C  0.44013357  0.20989290  0.67340364     0.36000
H999        H  0.42896743  0.14124267  0.72561712     0.16370
O1000       O  0.46107842  0.17624868  0.77214535    -0.60550
H1001       H  0.46707397  0.25528450  0.68719369     0.16390
O1002       O  0.43378308  0.22135043  0.64091740    -0.60650
H1003       H  0.45619364  0.22105028  0.62918016     0.43380
H1004       H  0.44393692  0.18700996  0.78724177     0.43340
C1005       C  0.67193769  0.18351660  0.56528552    -0.05720
C1006       C  0.70630231  0.17457875  0.56069113    -0.33150
C1007       C  0.72880360  0.19666776  0.54414511     0.36100
C1008       C  0.71681326  0.22801741  0.53165628    -0.06080
C1009       C  0.68400684  0.23899650  0.54076023    -0.33050
C1010       C  0.66134501  0.21683220  0.55714018     0.36000
H1011       H  0.71511031  0.14930410  0.56743550     0.16370
O1012       O  0.76084384  0.18538284  0.53585474    -0.60550
H1013       H  0.67457028  0.26321757  0.53152872     0.16390
O1014       O  0.62808078  0.22674424  0.56160633    -0.60650
H1015       H  0.61642540  0.22130023  0.53979702     0.43380
H1016       H  0.77289648  0.18237546  0.55791490     0.43340
C1017       C  0.56515469  0.17487972  0.68210918    -0.05720
C1018       C  0.55982244  0.16460526  0.71598241    -0.33150
C1019       C  0.54248869  0.18587649  0.73876155     0.36100
C1020       C  0.53031772  0.21770435  0.72769069    -0.06080
C1021       C  0.54018150  0.22992009  0.69564351    -0.33050
C1022       C  0.55728265  0.20869594  0.67273654     0.36000
H1023       H  0.56616113  0.13896137  0.72393157     0.16370
O1024       O  0.53403327  0.17373865  0.77039505    -0.60550
H1025       H  0.53132751  0.25456426  0.68694883     0.16390
O1026       O  0.56440470  0.22055587  0.64059632    -0.60650
H1027       H  0.54224372  0.22056326  0.62829293     0.43380
H1028       H  0.55260315  0.18165225  0.78566281     0.43340
C1029       C  0.67104565  0.81408014  0.56491250    -0.05720
C1030       C  0.70640507  0.81980705  0.56396668    -0.33150
C1031       C  0.72798985  0.79702594  0.54704437     0.36100
C1032       C  0.71394497  0.76896510  0.52974857    -0.06080
C1033       C  0.67939691  0.76101048  0.53451584    -0.33050
C1034       C  0.65789595  0.78329980  0.55199029     0.36000
H1035       H  0.71700620  0.84303042  0.57445645     0.16370
O1036       O  0.76203408  0.80450202  0.54420179    -0.60550
H1037       H  0.66827767  0.73941729  0.52140117     0.16390
O1038       O  0.62345496  0.77702300  0.55201863    -0.60650
H1039       H  0.61937569  0.76306122  0.57267719     0.43380
H1040       H  0.77235581  0.79689090  0.56601899     0.43340
C1041       C  0.67388617  0.18060761  0.43425206    -0.05720
C1042       C  0.66379224  0.21450603  0.43914159    -0.33150
C1043       C  0.68527118  0.23747225  0.45620614     0.36100
C1044       C  0.71731303  0.22659247  0.46835850    -0.06080
C1045       C  0.72934528  0.19442210  0.45884444    -0.33050
C1046       C  0.70776484  0.17122700  0.44243181     0.36000
H1047       H  0.63808538  0.22242066  0.43269190     0.16370
O1048       O  0.67307815  0.26903568  0.46469222    -0.60550
H1049       H  0.75411942  0.18583226  0.46766194     0.16390
O1050       O  0.71937342  0.13883795  0.43635928    -0.60650
H1051       H  0.71893790  0.12719096  0.45881392     0.43380
H1052       H  0.67015298  0.28124071  0.44274026     0.43340
C1053       C  0.67499860  0.81691371  0.43119604    -0.05720
C1054       C  0.70799256  0.82722501  0.44081391    -0.33150
C1055       C  0.72955599  0.80504838  0.45856064     0.36100
C1056       C  0.71817150  0.77210113  0.46654013    -0.06080
C1057       C  0.68781184  0.76005082  0.45187827    -0.33050
C1058       C  0.66621973  0.78221464  0.43402216     0.36000
H1059       H  0.71598048  0.85340524  0.43735471     0.16370
O1060       O  0.76040876  0.81654301  0.47066424    -0.60550
H1061       H  0.67899071  0.73455744  0.45762077     0.16390
O1062       O  0.63501302  0.77058599  0.42327308    -0.60650
H1063       H  0.63845308  0.76386986  0.39916115     0.43380
H1064       H  0.75514429  0.83613150  0.48569926     0.43340
C1065       C  0.46792395  0.77555089  0.27811848    -0.05720
C1066       C  0.45408226  0.80657546  0.26732350    -0.33150
C1067       C  0.43705498  0.82764246  0.29035723     0.36100
C1068       C  0.43363165  0.81767538  0.32478452    -0.06080
C1069       C  0.44290138  0.78446235  0.33418413    -0.33050
C1070       C  0.45992843  0.76333979  0.31095464     0.36000
H1071       H  0.45973088  0.81616882  0.24206109     0.16370
O1072       O  0.42674326  0.85927821  0.27970896    -0.60550
H1073       H  0.43995526  0.77606715  0.36032807     0.16390
O1074       O  0.47223094  0.73253470  0.32185238    -0.60650
H1075       H  0.45529056  0.71558067  0.31381462     0.43380
H1076       H  0.40195321  0.85699083  0.27508267     0.43340
C1077       C  0.43323379  0.67939191  0.17849661    -0.05720
C1078       C  0.43411504  0.71421630  0.17041935    -0.33150
C1079       C  0.45098735  0.73726790  0.19207750     0.36100
C1080       C  0.46660628  0.72525565  0.22205286    -0.06080
C1081       C  0.46005790  0.69197742  0.23295798    -0.33050
C1082       C  0.44388439  0.66887397  0.21127423     0.36000
H1083       H  0.42456566  0.72308813  0.14604017     0.16370
O1084       O  0.45394051  0.77101483  0.18323726    -0.60550
H1085       H  0.47122352  0.68272349  0.25650244     0.16390
O1086       O  0.44053413  0.63562742  0.22152920    -0.60650
H1087       H  0.46371075  0.62562620  0.21965630     0.43380
H1088       H  0.46011333  0.77175508  0.15874918     0.43340
C1089       C  0.53111997  0.77897172  0.27334287    -0.05720
C1090       C  0.54455735  0.76700186  0.30419532    -0.33150
C1091       C  0.56139780  0.78926813  0.32634828     0.36100
C1092       C  0.56570446  0.82371536  0.31710355    -0.06080
C1093       C  0.55730802  0.83399020  0.28386521    -0.33050
C1094       C  0.54000619  0.81175007  0.26195715     0.36000
H1095       H  0.53853760  0.74153155  0.31288007     0.16370
O1096       O  0.57162269  0.77772296  0.35779969    -0.60550
H1097       H  0.56089934  0.86020443  0.27607738     0.16390
O1098       O  0.52776476  0.82373904  0.23146203    -0.60650
H1099       H  0.54756198  0.82312189  0.21577897     0.43380
H1100       H  0.55042118  0.77578029  0.37145215     0.43340
C1101       C  0.56508975  0.68200971  0.17553313    -0.05720
C1102       C  0.55800733  0.71532237  0.16470156    -0.33150
C1103       C  0.54002550  0.73778354  0.18596416     0.36100
C1104       C  0.52997201  0.72714900  0.21870238    -0.06080
C1105       C  0.54203534  0.69598118  0.23131318    -0.33050
C1106       C  0.55919849  0.67329737  0.20993024     0.36000
H1107       H  0.56333911  0.72288817  0.13868501     0.16370
O1108       O  0.53045193  0.76924325  0.17403304    -0.60550
H1109       H  0.53476903  0.68761763  0.25660878     0.16390
O1110       O  0.56743811  0.64160984  0.22211715    -0.60650
H1111       H  0.59201687  0.64295256  0.22807230     0.43380
H1112       H  0.51909250  0.76536138  0.15175288     0.43340
C1113       C  0.27350198  0.77802270  0.46759833    -0.05720
C1114       C  0.26024930  0.80896109  0.45549334    -0.33150
C1115       C  0.28113748  0.83174421  0.43751763     0.36100
C1116       C  0.31558879  0.82333557  0.43155415    -0.06080
C1117       C  0.32680931  0.79014733  0.43899855    -0.33050
C1118       C  0.30594675  0.76750721  0.45676660     0.36000
H1119       H  0.23506246  0.81713939  0.46331274     0.16370
O1120       O  0.26865827  0.86326455  0.42911080    -0.60550
H1121       H  0.35290022  0.78270428  0.43370139     0.16390
O1122       O  0.31912375  0.73691956  0.46728953    -0.60650
H1123       H  0.31399931  0.72083658  0.44851084     0.43380
H1124       H  0.27152534  0.87727285  0.44994367     0.43340
C1125       C  0.32183839  0.81831205  0.56679926    -0.05720
C1126       C  0.28851841  0.82986197  0.55996163    -0.33150
C1127       C  0.26532758  0.80945765  0.54231921     0.36100
C1128       C  0.27535223  0.77709816  0.53105779    -0.06080
C1129       C  0.30654010  0.76354416  0.54241703    -0.33050
C1130       C  0.32979365  0.78391348  0.56045965     0.36000
H1131       H  0.28134388  0.85587912  0.56562181     0.16370
O1132       O  0.23473498  0.82309036  0.53213166    -0.60550
H1133       H  0.31430909  0.73837860  0.53433900     0.16390
O1134       O  0.36150631  0.77116789  0.56794650    -0.60650
H1135       H  0.35969278  0.76245527  0.59160885     0.43380
H1136       H  0.21849933  0.81732251  0.55059757     0.43340
C1137       C  0.21582314  0.72960379  0.46859852    -0.05720
C1138       C  0.22916196  0.70057688  0.45279288    -0.33150
C1139       C  0.20757121  0.67818784  0.43538155     0.36100
C1140       C  0.17229338  0.68510355  0.43337708    -0.06080
C1141       C  0.16019650  0.71686063  0.44430138    -0.33050
C1142       C  0.18183132  0.73913385  0.46186328     0.36000
H1143       H  0.25545736  0.69330066  0.45720278     0.16370
O1144       O  0.22061107  0.64815704  0.42328179    -0.60550
H1145       H  0.13328305  0.72294103  0.44238891     0.16390
O1146       O  0.16847078  0.76811224  0.47594427    -0.60650
H1147       H  0.17511002  0.78671114  0.46020865     0.43380
H1148       H  0.22388887  0.65190807  0.39850089     0.43340
C1149       C  0.17750373  0.68153193  0.56826667    -0.05720
C1150       C  0.21015343  0.67089178  0.55796017    -0.33150
C1151       C  0.23150686  0.69280559  0.53968674     0.36100
C1152       C  0.22031554  0.72585857  0.53181412    -0.06080
C1153       C  0.19032123  0.73815451  0.54685128    -0.33050
C1154       C  0.16891154  0.71625620  0.56518970     0.36000
H1155       H  0.21799940  0.64466794  0.56140225     0.16370
O1156       O  0.26192271  0.68094580  0.52701358    -0.60550
H1157       H  0.18170669  0.76376330  0.54139878     0.16390
O1158       O  0.13801494  0.72818247  0.57632111    -0.60650
H1159       H  0.14241868  0.73669734  0.59970891     0.43380
H1160       H  0.25594609  0.66215944  0.51121046     0.43340
C1161       C  0.46850477  0.71915720  0.77276627    -0.05720
C1162       C  0.45882709  0.73129098  0.80487388    -0.33150
C1163       C  0.44141424  0.71026343  0.82765603     0.36100
C1164       C  0.43310418  0.67657776  0.81822729    -0.06080
C1165       C  0.43782775  0.66655239  0.78421248    -0.33050
C1166       C  0.45584636  0.68757576  0.76150823     0.36000
H1167       H  0.46810344  0.75572815  0.81370705     0.16370
O1168       O  0.43555710  0.72185465  0.86009857    -0.60550
H1169       H  0.43061855  0.64119910  0.77610621     0.16390
O1170       O  0.46294071  0.67635721  0.72914624    -0.60650
H1171       H  0.47509242  0.65437582  0.73184074     0.43380
H1172       H  0.41142654  0.72946271  0.86007673     0.43340
C1173       C  0.46768372  0.77666043  0.72416709    -0.05720
C1174       C  0.45478861  0.80726718  0.73737607    -0.33150
C1175       C  0.43719836  0.83018996  0.71623287     0.36100
C1176       C  0.43273515  0.82249949  0.68138973    -0.06080
C1177       C  0.44104428  0.78964164  0.66990568    -0.33050
C1178       C  0.45823005  0.76673974  0.69108105     0.36000
H1179       H  0.46164173  0.81506054  0.76297582     0.16370
O1180       O  0.42832702  0.86144511  0.72890137    -0.60550
H1181       H  0.43683802  0.78262171  0.64351511     0.16390
O1182       O  0.46997214  0.73675448  0.67765310    -0.60650
H1183       H  0.44982071  0.72150443  0.67699503     0.43380
H1184       H  0.40433621  0.85887807  0.73649539     0.43340
C1185       C  0.53193563  0.71848780  0.77157412    -0.05720
C1186       C  0.54098512  0.68564578  0.76090721    -0.33150
C1187       C  0.55827021  0.66344849  0.78296024     0.36100
C1188       C  0.56730235  0.67442267  0.81599182    -0.06080
C1189       C  0.56257594  0.70884278  0.82455510    -0.33050
C1190       C  0.54526855  0.73090702  0.80245814     0.36000
H1191       H  0.53149925  0.67597649  0.73686918     0.16370
O1192       O  0.56288513  0.63023869  0.77326658    -0.60550
H1193       H  0.56995878  0.71802614  0.84954815     0.16390
O1194       O  0.53760091  0.76317919  0.81323741    -0.60650
H1195       H  0.55662593  0.77755289  0.80486523     0.43380
H1196       H  0.54126699  0.61850553  0.77919908     0.43340
C1197       C  0.53101067  0.77966253  0.72661895    -0.05720
C1198       C  0.53653880  0.81339582  0.73702820    -0.33150
C1199       C  0.55304395  0.83656150  0.71553576     0.36100
C1200       C  0.56477541  0.82576897  0.68340394    -0.06080
C1201       C  0.56342055  0.79099463  0.67522113    -0.33050
C1202       C  0.54706909  0.76786071  0.69688013     0.36000
H1203       H  0.52451514  0.82278887  0.76000782     0.16370
O1204       O  0.55404058  0.87027965  0.72452761    -0.60550
H1205       H  0.57290984  0.78215404  0.65085925     0.16390
O1206       O  0.54308733  0.73477327  0.68659557    -0.60650
H1207       H  0.56350206  0.72271954  0.69544511     0.43380
H1208       H  0.53206811  0.87995257  0.71644224     0.43340
C1209       C  0.27591017  0.03389035  0.27503748    -0.05720
C1210       C  0.30244077  0.05441547  0.26268923    -0.33150
C1211       C  0.32383050  0.07181408  0.28546965     0.36100
C1212       C  0.31844896  0.06845224  0.32086036    -0.06080
C1213       C  0.28801583  0.05321997  0.33223226    -0.33050
C1214       C  0.26673669  0.03608200  0.30951713     0.36000
H1215       H  0.30911355  0.05360188  0.23591930     0.16370
O1216       O  0.35188820  0.08853176  0.27305176    -0.60550
H1217       H  0.28226635  0.05166913  0.35919676     0.16390
O1218       O  0.24000546  0.01731618  0.32198791    -0.60650
H1219       H  0.22105093  0.03377978  0.32472082     0.43380
H1220       H  0.34484702  0.11271262  0.27134645     0.43340
C1221       C  0.32912519  0.93494245  0.31174697    -0.05720
C1222       C  0.34287541  0.95135768  0.28313579    -0.33150
C1223       C  0.32176827  0.97023584  0.26121504     0.36100
C1224       C  0.28636977  0.97189273  0.26732161    -0.06080
C1225       C  0.27223972  0.95117240  0.29280596    -0.33050
C1226       C  0.29341997  0.93318896  0.31533232     0.36000
H1227       H  0.37029311  0.95247495  0.27968423     0.16370
O1228       O  0.33603741  0.98886836  0.23525216    -0.60550
H1229       H  0.24507100  0.95202215  0.29776667     0.16390
O1230       O  0.27914809  0.91535579  0.34179759    -0.60650
H1231       H  0.27296728  0.93270961  0.35905354     0.43380
H1232       H  0.35208533  0.00503643  0.24627015     0.43340
C1233       C  0.27169304  0.27970747  0.03175788    -0.05720
C1234       C  0.25966542  0.31175492  0.04193956    -0.33150
C1235       C  0.28100433  0.33425828  0.05967526     0.36100
C1236       C  0.31485216  0.32460689  0.06724328    -0.06080
C1237       C  0.32462445  0.29061726  0.06203170    -0.33050
C1238       C  0.30323634  0.26812207  0.04434552     0.36000
H1239       H  0.23510215  0.32072064  0.03294438     0.16370
O1240       O  0.26991237  0.36680472  0.06554706    -0.60550
H1241       H  0.35001847  0.28222673  0.06913623     0.16390
O1242       O  0.31428493  0.23576916  0.03695909    -0.60650
H1243       H  0.33692917  0.23827018  0.02599340     0.43380
H1244       H  0.25991335  0.36622041  0.08874095     0.43340
C1245       C  0.31499521  0.32655883  0.93388695    -0.05720
C1246       C  0.32350523  0.29189450  0.93653510    -0.33150
C1247       C  0.30186892  0.26902450  0.95356996     0.36100
C1248       C  0.27149715  0.28102136  0.96828815    -0.06080
C1249       C  0.26071178  0.31434301  0.96098587    -0.33050
C1250       C  0.28220652  0.33714799  0.94395484     0.36000
H1251       H  0.34809652  0.28302275  0.92759778     0.16370
O1252       O  0.31136197  0.23559892  0.95775760    -0.60550
H1253       H  0.23710845  0.32379614  0.97172388     0.16390
O1254       O  0.27265251  0.37061644  0.94138243    -0.60650
H1255       H  0.26072066  0.37240375  0.91913075     0.43380
H1256       H  0.33515598  0.23580430  0.96643085     0.43340
C1257       C  0.27765674  0.46938278  0.22594222    -0.05720
C1258       C  0.30788904  0.45485564  0.23851661    -0.33150
C1259       C  0.32978215  0.43697333  0.21672879     0.36100
C1260       C  0.32149918  0.43399703  0.18183302    -0.06080
C1261       C  0.28880416  0.44404857  0.17084909    -0.33050
C1262       C  0.26686809  0.46145169  0.19272058     0.36000
H1263       H  0.31632006  0.46058069  0.26420090     0.16370
O1264       O  0.36079206  0.42627835  0.22893945    -0.60550
H1265       H  0.28127427  0.44097364  0.14442837     0.16390
O1266       O  0.23701539  0.47457627  0.18000234    -0.60650
H1267       H  0.21941174  0.45721632  0.18518458     0.43380
H1268       H  0.35718221  0.40224949  0.23578550     0.43340
C1269       C  0.17474517  0.43358572  0.31590370    -0.05720
C1270       C  0.20871429  0.43816371  0.32661767    -0.33150
C1271       C  0.23178851  0.45639673  0.30651613     0.36100
C1272       C  0.22101217  0.46990041  0.27514517    -0.06080
C1273       C  0.18899076  0.46050627  0.26204544    -0.33050
C1274       C  0.16577220  0.44237576  0.28222130     0.36000
H1275       H  0.21657049  0.43034080  0.35195279     0.16370
O1276       O  0.26378616  0.46362154  0.31894554    -0.60550
H1277       H  0.18066148  0.47015840  0.23755508     0.16390
O1278       O  0.13324384  0.43730255  0.27030446    -0.60650
H1279       H  0.13367184  0.41445932  0.25959878     0.43380
H1280       H  0.26020085  0.47806232  0.33935190     0.43340
C1281       C  0.28224302  0.53233949  0.23004415    -0.05720
C1282       C  0.31651163  0.53683365  0.23948917    -0.33150
C1283       C  0.33925920  0.55340384  0.21762654     0.36100
C1284       C  0.32744174  0.56620746  0.18618263    -0.06080
C1285       C  0.29231161  0.56597828  0.17921959    -0.33050
C1286       C  0.26961753  0.54951709  0.20119504     0.36000
H1287       H  0.32650911  0.52390627  0.26178291     0.16370
O1288       O  0.37342165  0.55337885  0.22542883    -0.60550
H1289       H  0.28274952  0.57631111  0.15541492     0.16390
O1290       O  0.23603904  0.54643035  0.19185737    -0.60650
H1291       H  0.22614956  0.56942851  0.19505850     0.43380
H1292       H  0.38227913  0.53147691  0.21652362     0.43340
C1293       C  0.22386438  0.53319455  0.27795177    -0.05720
C1294       C  0.23750191  0.54409178  0.30924410    -0.33150
C1295       C  0.21692554  0.56130324  0.33286242     0.36100
C1296       C  0.18256313  0.56820494  0.32470460    -0.06080
C1297       C  0.17109277  0.56223531  0.29127117    -0.33050
C1298       C  0.19146162  0.54483689  0.26792995     0.36000
H1299       H  0.26273876  0.53582694  0.31694712     0.16370
O1300       O  0.22957638  0.56802498  0.36478666    -0.60550
H1301       H  0.14505136  0.56827198  0.28408421     0.16390
O1302       O  0.17774029  0.53518710  0.23719876    -0.60650
H1303       H  0.17254171  0.55663674  0.22490306     0.43380
H1304       H  0.22630821  0.54669122  0.37791824     0.43340
C1305       C  0.27059012  0.21995211  0.47002764    -0.05720
C1306       C  0.25914320  0.18667282  0.46378345    -0.33150
C1307       C  0.28020288  0.16317184  0.44713835     0.36100
C1308       C  0.31280880  0.17332319  0.43591872    -0.06080
C1309       C  0.32174820  0.20791360  0.43762812    -0.33050
C1310       C  0.30073432  0.23124188  0.45434407     0.36000
H1311       H  0.23562599  0.17781082  0.47518641     0.16370
O1312       O  0.27020043  0.12976225  0.44535448    -0.60550
H1313       H  0.34639773  0.21639374  0.42844275     0.16390
O1314       O  0.31217364  0.26382675  0.45939019    -0.60650
H1315       H  0.30642472  0.27613800  0.43806350     0.43380
H1316       H  0.27734285  0.11950636  0.46736601     0.43340
C1317       C  0.22302034  0.27844103  0.46938089    -0.05720
C1318       C  0.23579698  0.30890816  0.45567618    -0.33150
C1319       C  0.21442534  0.33106178  0.43746307     0.36100
C1320       C  0.17965958  0.32282473  0.43308147    -0.06080
C1321       C  0.16849654  0.29006557  0.44232293    -0.33050
C1322       C  0.18988256  0.26796446  0.46051376     0.36000
H1323       H  0.26131092  0.31728190  0.46226344     0.16370
O1324       O  0.22682293  0.36221562  0.42777335    -0.60550
H1325       H  0.14222173  0.28256789  0.43797057     0.16390
O1326       O  0.17739698  0.23739344  0.47203760    -0.60650
H1327       H  0.15790808  0.24303500  0.48711416     0.43380
H1328       H  0.23489298  0.35900272  0.40405131     0.43340
C1329       C  0.27641381  0.22463316  0.53294373    -0.05720
C1330       C  0.30933310  0.23698893  0.54010074    -0.33150
C1331       C  0.33352051  0.21630551  0.55652499     0.36100
C1332       C  0.32451270  0.18304859  0.56649464    -0.06080
C1333       C  0.29031313  0.17275219  0.56353539    -0.33050
C1334       C  0.26625762  0.19332408  0.54705413     0.36000
H1335       H  0.31754082  0.26101459  0.52931179     0.16370
O1336       O  0.36659657  0.22745546  0.55927153    -0.60550
H1337       H  0.28275359  0.14745762  0.57158074     0.16390
O1338       O  0.23426998  0.18058372  0.54065639    -0.60650
H1339       H  0.22383532  0.17666430  0.56333639     0.43380
H1340       H  0.37755779  0.22122486  0.53737474     0.43340
C1341       C  0.18312463  0.32856614  0.56506190    -0.05720
C1342       C  0.17579912  0.29363821  0.56503768    -0.33150
C1343       C  0.19790670  0.27053182  0.54936748     0.36100
C1344       C  0.22720311  0.28253260  0.53254460    -0.06080
C1345       C  0.23699140  0.31661258  0.53702245    -0.33050
C1346       C  0.21501479  0.33976977  0.55287743     0.36000
H1347       H  0.15169435  0.28450514  0.57501036     0.16370
O1348       O  0.18829569  0.23712574  0.54656350    -0.60550
H1349       H  0.25969131  0.32616410  0.52453060     0.16390
O1350       O  0.22326897  0.37370066  0.55280177    -0.60650
H1351       H  0.21494377  0.38252131  0.53057813     0.43380
H1352       H  0.18911791  0.22797925  0.57012337     0.43340
C1353       C  0.46527327  0.27335726  0.22130199    -0.05720
C1354       C  0.45823290  0.30632774  0.23273728    -0.33150
C1355       C  0.44181489  0.32963771  0.21135825     0.36100
C1356       C  0.43137896  0.31960288  0.17832525    -0.06080
C1357       C  0.43342354  0.28509128  0.16940012    -0.33050
C1358       C  0.45028116  0.26192471  0.19077137     0.36000
H1359       H  0.46919341  0.31526734  0.25648739     0.16370
O1360       O  0.43821113  0.36268061  0.22211011    -0.60550
H1361       H  0.42496192  0.27662639  0.14449951     0.16390
O1362       O  0.45597513  0.22940086  0.17955248    -0.60650
H1363       H  0.43325042  0.21827801  0.17959896     0.43380
H1364       H  0.46128124  0.37294507  0.22022507     0.43340
C1365       C  0.43078050  0.18320105  0.32517319    -0.05720
C1366       C  0.43528728  0.17231074  0.29135546    -0.33150
C1367       C  0.45309603  0.19229217  0.26786538     0.36100
C1368       C  0.46667458  0.22377819  0.27803467    -0.06080
C1369       C  0.45792973  0.23683983  0.31020266    -0.33050
C1370       C  0.44031036  0.21665233  0.33393797     0.36000
H1371       H  0.42760048  0.14689578  0.28384516     0.16370
O1372       O  0.46130220  0.17881399  0.23668975    -0.60550
H1373       H  0.46785283  0.26127422  0.31822247     0.16390
O1374       O  0.43571550  0.22858398  0.36645165    -0.60650
H1375       H  0.45719279  0.22309032  0.37872432     0.43380
H1376       H  0.43924106  0.17545709  0.22471084     0.43340
C1377       C  0.56238139  0.31478059  0.17114227    -0.05720
C1378       C  0.56047690  0.32240619  0.20604851    -0.33150
C1379       C  0.54386235  0.30041171  0.22871173     0.36100
C1380       C  0.52839746  0.27049644  0.21644093    -0.06080
C1381       C  0.53409615  0.26083084  0.18246949    -0.33050
C1382       C  0.55064455  0.28284079  0.15971757     0.36000
H1383       H  0.56972297  0.34666185  0.21541655     0.16370
O1384       O  0.53880896  0.31060573  0.26172679    -0.60550
H1385       H  0.52238169  0.23789557  0.17260664     0.16390
O1386       O  0.55188449  0.27440176  0.12581517    -0.60650
H1387       H  0.52999890  0.28260852  0.11603421     0.43380
H1388       H  0.56178066  0.31035748  0.27240261     0.43340
C1389       C  0.53001648  0.22089584  0.27402568    -0.05720
C1390       C  0.53950442  0.18889541  0.26126942    -0.33150
C1391       C  0.55642047  0.16533048  0.28221767     0.36100
C1392       C  0.56450254  0.17416993  0.31611192    -0.06080
C1393       C  0.55969666  0.20795885  0.32671070    -0.33050
C1394       C  0.54264553  0.23131759  0.30590581     0.36000
H1395       H  0.53013636  0.18066515  0.23661403     0.16370
O1396       O  0.56156069  0.13286286  0.27050519    -0.60550
H1397       H  0.56650380  0.21556238  0.35239725     0.16390
O1398       O  0.53414371  0.26259751  0.31885986    -0.60650
H1399       H  0.55612920  0.27439971  0.32307919     0.43380
H1400       H  0.53985189  0.12065814  0.27496636     0.43340
C1401       C  0.02752714  0.22460566  0.22290339    -0.05720
C1402       C  0.03490795  0.23691217  0.19013287    -0.33150
C1403       C  0.05218334  0.21643230  0.16657752     0.36100
C1404       C  0.06249675  0.18339906  0.17608568    -0.06080
C1405       C  0.05943338  0.17338936  0.21035042    -0.33050
C1406       C  0.04229691  0.19390667  0.23378583     0.36000
H1407       H  0.02403520  0.26078507  0.18160727     0.16370
O1408       O  0.05552545  0.22751680  0.13358113    -0.60550
H1409       H  0.06790182  0.14837154  0.21836671     0.16390
O1410       O  0.03608254  0.18166025  0.26592074    -0.60650
H1411       H  0.05714140  0.18661896  0.27907564     0.43380
H1412       H  0.03379121  0.22126684  0.12215907     0.43340
C1413       C  0.21954369  0.03158373  0.22548249    -0.05720
C1414       C  0.23093885  0.05105606  0.19783772    -0.33150
C1415       C  0.20764827  0.06911670  0.17772915     0.36100
C1416       C  0.17250038  0.06793466  0.18538927    -0.06080
C1417       C  0.16193674  0.05276668  0.21596353    -0.33050
C1418       C  0.18531819  0.03460470  0.23604361     0.36000
H1419       H  0.25725484  0.04923056  0.18960995     0.16370
O1420       O  0.21903046  0.08498312  0.14873903    -0.60550
H1421       H  0.13508339  0.05194312  0.22247205     0.16390
O1422       O  0.17373094  0.01667610  0.26368201    -0.60650
H1423       H  0.17259400  0.03349746  0.28245608     0.43380
H1424       H  0.22087824  0.10938705  0.15487732     0.43340
C1425       C  0.22369913  0.22183308  0.03119437    -0.05720
C1426       C  0.23634307  0.19143972  0.04520898    -0.33150
C1427       C  0.21469292  0.16937077  0.06320319     0.36100
C1428       C  0.17999098  0.17791911  0.06746311    -0.06080
C1429       C  0.16911770  0.21072390  0.05809608    -0.33050
C1430       C  0.19064047  0.23256094  0.03986484     0.36000
H1431       H  0.26197455  0.18312846  0.03915182     0.16370
O1432       O  0.22697708  0.13841290  0.07373698    -0.60550
H1433       H  0.14291449  0.21844901  0.06233393     0.16390
O1434       O  0.17840181  0.26318032  0.02813539    -0.60650
H1435       H  0.15789183  0.25777151  0.01428929     0.43380
H1436       H  0.22532337  0.12341562  0.05347599     0.43340
C1437       C  0.22843495  0.21809434  0.96796243    -0.05720
C1438       C  0.23778516  0.18382821  0.96406598    -0.33150
C1439       C  0.21659657  0.16111622  0.94656786     0.36100
C1440       C  0.18565785  0.17278821  0.93245002    -0.06080
C1441       C  0.17914939  0.20794485  0.93170571    -0.33050
C1442       C  0.20052326  0.23074096  0.94923325     0.36000
H1443       H  0.25955901  0.17384150  0.97788428     0.16370
O1444       O  0.22403191  0.12703278  0.94764728    -0.60550
H1445       H  0.15607897  0.21744812  0.91973864     0.16390
O1446       O  0.19291656  0.26488336  0.94996168    -0.60650
H1447       H  0.16847076  0.26678565  0.95614945     0.43380
H1448       H  0.23808069  0.12274215  0.92710553     0.43340
C1449       C  0.93058241  0.17414202  0.18437960    -0.05720
C1450       C  0.93410084  0.20841085  0.17474861    -0.33150
C1451       C  0.95055529  0.23163922  0.19616301     0.36100
C1452       C  0.96437045  0.22049317  0.22730628    -0.06080
C1453       C  0.95648272  0.18768542  0.23906253    -0.33050
C1454       C  0.93980382  0.16437273  0.21773693     0.36000
H1455       H  0.92644146  0.21661838  0.14947731     0.16370
O1456       O  0.95700854  0.26390513  0.18451846    -0.60550
H1457       H  0.96685325  0.17885723  0.26311953     0.16390
O1458       O  0.93611196  0.13132229  0.22838930    -0.60650
H1459       H  0.95796159  0.11998786  0.22258398     0.43380
H1460       H  0.93608048  0.27705798  0.18975719     0.43340
C1461       C  0.18662568  0.93328002  0.17286521    -0.05720
C1462       C  0.21733145  0.94716187  0.16081783    -0.33150
C1463       C  0.23874888  0.96529982  0.18287729     0.36100
C1464       C  0.22942656  0.96951822  0.21725753    -0.06080
C1465       C  0.20183660  0.95095323  0.23023801    -0.33050
C1466       C  0.18030725  0.93299500  0.20823350     0.36000
H1467       H  0.22289256  0.94717304  0.13377142     0.16370
O1468       O  0.26606847  0.98265587  0.16967142    -0.60550
H1469       H  0.19470659  0.95353742  0.25676427     0.16390
O1470       O  0.15138467  0.91813589  0.22109974    -0.60650
H1471       H  0.15710661  0.89367509  0.22353755     0.43380
H1472       H  0.28646460  0.96974356  0.17725326     0.43340
C1473       C  0.03130250  0.77590602  0.77706158    -0.05720
C1474       C  0.04048170  0.80874499  0.76679780    -0.33150
C1475       C  0.05698093  0.83071204  0.78941562     0.36100
C1476       C  0.06550698  0.81944053  0.82259958    -0.06080
C1477       C  0.06129745  0.78486583  0.83066487    -0.33050
C1478       C  0.04426239  0.76305575  0.80798325     0.36000
H1479       H  0.03116979  0.81875563  0.74275707     0.16370
O1480       O  0.06262875  0.86378582  0.77960217    -0.60550
H1481       H  0.06831865  0.77545053  0.85568124     0.16390
O1482       O  0.03705497  0.73040756  0.81787588    -0.60650
H1483       H  0.05797329  0.71726304  0.81256672     0.43380
H1484       H  0.03997224  0.87504445  0.78052207     0.43340
C1485       C  0.96783014  0.77767332  0.77555345    -0.05720
C1486       C  0.95761255  0.80938768  0.76256008    -0.33150
C1487       C  0.94036448  0.83272201  0.78340158     0.36100
C1488       C  0.93330841  0.82415262  0.81759064    -0.06080
C1489       C  0.93896620  0.79053069  0.82850787    -0.33050
C1490       C  0.95586898  0.76729539  0.80763077     0.36000
H1491       H  0.96640083  0.81752304  0.73768699     0.16370
O1492       O  0.93370176  0.86475241  0.77117859    -0.60550
H1493       H  0.93279523  0.78300395  0.85435859     0.16390
O1494       O  0.96459345  0.73606030  0.82057045    -0.60650
H1495       H  0.94528689  0.72089828  0.81452530     0.43380
H1496       H  0.95514081  0.87774564  0.77464244     0.43340
C1497       C  0.03031539  0.71862256  0.72766379    -0.05720
C1498       C  0.04860412  0.73107387  0.69967304    -0.33150
C1499       C  0.06653980  0.70871436  0.67853019     0.36100
C1500       C  0.06668086  0.67351374  0.68570124    -0.06080
C1501       C  0.05283006  0.66203432  0.71655239    -0.33050
C1502       C  0.03462520  0.68440180  0.73753099     0.36000
H1503       H  0.04600006  0.75747608  0.69216237     0.16370
O1504       O  0.08115924  0.72105172  0.64928727    -0.60550
H1505       H  0.05297416  0.63514352  0.72268410     0.16390
O1506       O  0.01743685  0.67171927  0.76519204    -0.60650
H1507       H  0.03532243  0.66598426  0.78216865     0.43380
H1508       H  0.10560276  0.72430050  0.65504275     0.43340
C1509       C  0.96761967  0.72684325  0.72031280    -0.05720
C1510       C  0.95002466  0.69810738  0.73192682    -0.33150
C1511       C  0.93209564  0.67763618  0.70897454     0.36100
C1512       C  0.93151558  0.68612676  0.67403618    -0.06080
C1513       C  0.94394341  0.71792724  0.66366422    -0.33050
C1514       C  0.96229968  0.73825664  0.68665923     0.36000
H1515       H  0.95333790  0.68944698  0.75793280     0.16370
O1516       O  0.91827003  0.64762730  0.72031219    -0.60550
H1517       H  0.94285841  0.72527735  0.63705091     0.16390
O1518       O  0.97750159  0.76770566  0.67547260    -0.60650
H1519       H  0.99393192  0.76073629  0.65758816     0.43380
H1520       H  0.89352490  0.65226313  0.72284923     0.43340
C1521       C  0.77155707  0.03220419  0.78081883    -0.05720
C1522       C  0.76058738  0.04087237  0.81372629    -0.33150
C1523       C  0.78214840  0.05866657  0.83596713     0.36100
C1524       C  0.81524936  0.06775099  0.82524264    -0.06080
C1525       C  0.82403840  0.06337339  0.79080264    -0.33050
C1526       C  0.80224814  0.04602097  0.76852490     0.36000
H1527       H  0.73683957  0.03064392  0.82342944     0.16370
O1528       O  0.77232705  0.06286785  0.86922413    -0.60550
H1529       H  0.84903196  0.07098642  0.78178739     0.16390
O1530       O  0.81325252  0.03872122  0.73620322    -0.60650
H1531       H  0.80630751  0.05859008  0.72222644     0.43380
H1532       H  0.76090661  0.08537112  0.86985821     0.43340
C1533       C  0.81614133  0.93401160  0.82540812    -0.05720
C1534       C  0.82543550  0.93938918  0.79122656    -0.33150
C1535       C  0.80354850  0.95646510  0.76881245     0.36100
C1536       C  0.77211359  0.96892887  0.78062952    -0.06080
C1537       C  0.76077752  0.95925877  0.81315149    -0.33050
C1538       C  0.78259334  0.94197698  0.83564646     0.36000
H1539       H  0.85081129  0.93273638  0.78254477     0.16370
O1540       O  0.81501953  0.96485450  0.73690159    -0.60550
H1541       H  0.73645794  0.96841467  0.82247497     0.16390
O1542       O  0.77206007  0.93624577  0.86847983    -0.60650
H1543       H  0.77702657  0.95766132  0.88091177     0.43380
H1544       H  0.80885209  0.94518326  0.72233180     0.43340
C1545       C  0.72675866  0.03210151  0.71986292    -0.05720
C1546       C  0.73822757  0.04055394  0.68703627    -0.33150
C1547       C  0.71700252  0.05819100  0.66430835     0.36100
C1548       C  0.68373183  0.06720652  0.67442744    -0.06080
C1549       C  0.67443567  0.06312024  0.70878679    -0.33050
C1550       C  0.69590561  0.04601471  0.73157622     0.36000
H1551       H  0.76210154  0.03024417  0.67777248     0.16370
O1552       O  0.72729998  0.06223565  0.63117254    -0.60550
H1553       H  0.64927660  0.07071543  0.71732487     0.16390
O1554       O  0.68442197  0.03898845  0.76380902    -0.60650
H1555       H  0.69216422  0.05844692  0.77791506     0.43380
H1556       H  0.73850674  0.08485222  0.63049735     0.43340
C1557       C  0.72591611  0.96882792  0.72061899    -0.05720
C1558       C  0.73779720  0.95874566  0.68843894    -0.33150
C1559       C  0.71645394  0.94098192  0.66592411     0.36100
C1560       C  0.68261854  0.93351883  0.67555267    -0.06080
C1561       C  0.67264128  0.93943309  0.70943784    -0.33050
C1562       C  0.69420410  0.95663954  0.73203436     0.36000
H1563       H  0.76225722  0.96781650  0.67937182     0.16370
O1564       O  0.72745273  0.93513303  0.63330091    -0.60550
H1565       H  0.64703033  0.93308291  0.71767485     0.16390
O1566       O  0.68219394  0.96541568  0.76362263    -0.60650
H1567       H  0.68915729  0.94646955  0.77882192     0.43380
H1568       H  0.73793465  0.91217776  0.63397559     0.43340
C1569       C  0.77527461  0.77831401  0.03205710    -0.05720
C1570       C  0.76237282  0.80971835  0.04315716    -0.33150
C1571       C  0.78329460  0.83255162  0.06098140     0.36100
C1572       C  0.81753371  0.82381404  0.06776368    -0.06080
C1573       C  0.82834820  0.79029622  0.06151971    -0.33050
C1574       C  0.80747327  0.76758723  0.04361600     0.36000
H1575       H  0.73737198  0.81806108  0.03482106     0.16370
O1576       O  0.77134649  0.86464021  0.06764675    -0.60550
H1577       H  0.85416180  0.78258372  0.06783865     0.16390
O1578       O  0.81970470  0.73601475  0.03492143    -0.60650
H1579       H  0.84015563  0.74012753  0.02062891     0.43380
H1580       H  0.76180974  0.86334780  0.09100634     0.43340
C1581       C  0.77663315  0.77745524  0.96856635    -0.05720
C1582       C  0.80750071  0.76366252  0.95678307    -0.33150
C1583       C  0.83125679  0.78424629  0.93969025     0.36100
C1584       C  0.82362334  0.81878761  0.93370617    -0.06080
C1585       C  0.79050841  0.83062024  0.94067352    -0.33050
C1586       C  0.76707380  0.81024306  0.95800493     0.36000
H1587       H  0.81480803  0.73812812  0.96419018     0.16370
O1588       O  0.86283182  0.77128284  0.93208242    -0.60550
H1589       H  0.78367752  0.85683034  0.93539619     0.16390
O1590       O  0.73682626  0.82417889  0.96870244    -0.60650
H1591       H  0.72401774  0.82985440  0.94761686     0.43380
H1592       H  0.87644036  0.77376643  0.95329533     0.43340
C1593       C  0.72293737  0.72408820  0.03166017    -0.05720
C1594       C  0.73665820  0.69374948  0.04478395    -0.33150
C1595       C  0.71576919  0.67041584  0.06208891     0.36100
C1596       C  0.68077700  0.67760708  0.06639160    -0.06080
C1597       C  0.66872182  0.71024181  0.05774543    -0.33050
C1598       C  0.68956666  0.73341378  0.04064132     0.36000
H1599       H  0.76245578  0.68637605  0.03819680     0.16370
O1600       O  0.72906229  0.63957990  0.07170991    -0.60550
H1601       H  0.64218470  0.71687758  0.06175205     0.16390
O1602       O  0.67569248  0.76325517  0.02894061    -0.60650
H1603       H  0.68271996  0.78072231  0.04576684     0.43380
H1604       H  0.72782997  0.62512398  0.05102886     0.43340
C1605       C  0.72463609  0.72284646  0.96828166    -0.05720
C1606       C  0.73426686  0.68920579  0.96186344    -0.33150
C1607       C  0.71171390  0.66688398  0.94574544     0.36100
C1608       C  0.67925000  0.67853273  0.93501677    -0.06080
C1609       C  0.67224522  0.71351958  0.93628610    -0.33050
C1610       C  0.69490693  0.73575915  0.95275232     0.36000
H1611       H  0.75747005  0.67913130  0.97308735     0.16370
O1612       O  0.72073020  0.63325576  0.94273470    -0.60550
H1613       H  0.64788837  0.72319237  0.92744561     0.16390
O1614       O  0.68573704  0.76908243  0.95726065    -0.60650
H1615       H  0.68855453  0.77981551  0.93455129     0.43380
H1616       H  0.71850036  0.62353177  0.96598696     0.43340
C1617       C  0.21992093  0.77391553  0.03233607    -0.05720
C1618       C  0.23215447  0.80282764  0.04922993    -0.33150
C1619       C  0.20955873  0.82442674  0.06634413     0.36100
C1620       C  0.17448728  0.81638656  0.06767566    -0.06080
C1621       C  0.16344717  0.78467005  0.05556735    -0.33050
C1622       C  0.18598661  0.76345079  0.03782256     0.36000
H1623       H  0.25843913  0.81069216  0.04590565     0.16370
O1624       O  0.22154155  0.85435536  0.07985484    -0.60550
H1625       H  0.13665996  0.77788629  0.05667661     0.16390
O1626       O  0.17364900  0.73468578  0.02234465    -0.60650
H1627       H  0.17000541  0.71814668  0.04108526     0.43380
H1628       H  0.22517240  0.86967158  0.06007028     0.43340
C1629       C  0.18473504  0.82429108  0.93228255    -0.05720
C1630       C  0.21673278  0.83539819  0.94389635    -0.33150
C1631       C  0.23766425  0.81343461  0.96287241     0.36100
C1632       C  0.22683896  0.77989586  0.96944126    -0.06080
C1633       C  0.19775785  0.76738933  0.95284446    -0.33050
C1634       C  0.17655104  0.78939404  0.93450892     0.36000
H1635       H  0.22383643  0.86195592  0.94167634     0.16370
O1636       O  0.26719266  0.82558933  0.97734268    -0.60550
H1637       H  0.18949399  0.74144847  0.95722105     0.16390
O1638       O  0.14625759  0.77723758  0.92181594    -0.60650
H1639       H  0.15049927  0.77328280  0.89722561     0.43380
H1640       H  0.26011125  0.84394446  0.99315987     0.43340
C1641       C  0.31683455  0.67643749  0.06888097    -0.05720
C1642       C  0.28412136  0.66618941  0.05849395    -0.33150
C1643       C  0.26290113  0.68876778  0.04066757     0.36100
C1644       C  0.27442270  0.72189053  0.03330422    -0.06080
C1645       C  0.30456991  0.73361589  0.04849142    -0.33050
C1646       C  0.32605354  0.71102040  0.06583013     0.36000
H1647       H  0.27640024  0.63982778  0.06096963     0.16370
O1648       O  0.23302597  0.67699257  0.02674494    -0.60550
H1649       H  0.31338965  0.75927417  0.04354092     0.16390
O1650       O  0.35698382  0.72241094  0.07775903    -0.60650
H1651       H  0.37159968  0.72495376  0.05729038     0.43380
H1652       H  0.21683654  0.67556353  0.04607857     0.43340
C1653       C  0.32520136  0.68411142  0.93477463    -0.05720
C1654       C  0.33602331  0.71645435  0.94542385    -0.33150
C1655       C  0.31365981  0.73785920  0.96317726     0.36100
C1656       C  0.28020542  0.72689050  0.97030128    -0.06080
C1657       C  0.26804711  0.69704528  0.95505280    -0.33050
C1658       C  0.29030424  0.67557592  0.93747216     0.36000
H1659       H  0.36259289  0.72374014  0.94309912     0.16370
O1660       O  0.32587471  0.76748674  0.97700118    -0.60550
H1661       H  0.24221073  0.68854181  0.95994868     0.16390
O1662       O  0.27838672  0.64483726  0.92593051    -0.60650
H1663       H  0.27418571  0.64820612  0.90121859     0.43380
H1664       H  0.32314322  0.78476774  0.95877016     0.43340
C1665       C  0.78183924  0.23005705  0.03073921    -0.05720
C1666       C  0.81512976  0.23984247  0.03950622    -0.33150
C1667       C  0.83676720  0.21731575  0.05672771     0.36100
C1668       C  0.82481755  0.18468019  0.06571796    -0.06080
C1669       C  0.79006990  0.17700226  0.06123676    -0.33050
C1670       C  0.76845259  0.19973258  0.04424501     0.36000
H1671       H  0.82565427  0.26325777  0.02939246     0.16370
O1672       O  0.87040580  0.22603077  0.06111926    -0.60550
H1673       H  0.78022946  0.15233465  0.06872555     0.16390
O1674       O  0.73550228  0.19021726  0.03730323    -0.60650
H1675       H  0.72208003  0.19809346  0.05718332     0.43380
H1676       H  0.88183020  0.21957303  0.03952456     0.43340
C1677       C  0.78188081  0.22914218  0.96738379    -0.05720
C1678       C  0.81416595  0.24030024  0.95678591    -0.33150
C1679       C  0.83647981  0.21802354  0.94010039     0.36100
C1680       C  0.82627894  0.18418175  0.93374894    -0.06080
C1681       C  0.79221091  0.17487560  0.93998633    -0.33050
C1682       C  0.76996342  0.19724206  0.95640793     0.36000
H1683       H  0.82357125  0.26490271  0.96497303     0.16370
O1684       O  0.86915158  0.22857205  0.93335278    -0.60550
H1685       H  0.78349841  0.14928859  0.93445245     0.16390
O1686       O  0.73810662  0.18605728  0.96548840    -0.60650
H1687       H  0.72328931  0.19144667  0.94568758     0.43380
H1688       H  0.88202044  0.22481420  0.95484168     0.43340
C1689       C  0.72554526  0.28012566  0.02978125    -0.05720
C1690       C  0.69251149  0.26859947  0.03694693    -0.33150
C1691       C  0.66923760  0.28970720  0.05361971     0.36100
C1692       C  0.67925717  0.32267404  0.06392214    -0.06080
C1693       C  0.71386390  0.33181031  0.06153414    -0.33050
C1694       C  0.73702660  0.31062149  0.04459179     0.36000
H1695       H  0.68353944  0.24483545  0.02617981     0.16370
O1696       O  0.63624874  0.27869017  0.05781225    -0.60550
H1697       H  0.72236245  0.35665576  0.06996366     0.16390
O1698       O  0.76968615  0.32181276  0.03908689    -0.60650
H1699       H  0.78347927  0.31132280  0.05753084     0.43380
H1700       H  0.62551151  0.28045340  0.03493841     0.43340
C1701       C  0.72788495  0.28176315  0.96646540    -0.05720
C1702       C  0.69646537  0.26927634  0.95484898    -0.33150
C1703       C  0.67362320  0.29077238  0.93784824     0.36100
C1704       C  0.68255813  0.32504108  0.93174364    -0.06080
C1705       C  0.71611178  0.33568084  0.93847683    -0.33050
C1706       C  0.73878447  0.31416839  0.95577954     0.36000
H1707       H  0.68794644  0.24419242  0.96252212     0.16370
O1708       O  0.64186503  0.27871194  0.92921742    -0.60550
H1709       H  0.72371528  0.36170901  0.93343425     0.16390
O1710       O  0.76985334  0.32660925  0.96597702    -0.60650
H1711       H  0.78621218  0.31858644  0.94850051     0.43380
H1712       H  0.62894705  0.27758524  0.95091627     0.43340
C1713       C  0.77285542  0.03147208  0.22172978    -0.05720
C1714       C  0.76167446  0.03471176  0.18784485    -0.33150
C1715       C  0.78147123  0.05217523  0.16387792     0.36100
C1716       C  0.81260078  0.06691417  0.17405871    -0.06080
C1717       C  0.82099750  0.06788958  0.20889658    -0.33050
C1718       C  0.80106230  0.05056899  0.23280334     0.36000
H1719       H  0.73981752  0.02025301  0.17906928     0.16370
O1720       O  0.77231458  0.05103034  0.13011234    -0.60550
H1721       H  0.84465717  0.07959321  0.21717885     0.16390
O1722       O  0.81203779  0.04848140  0.26594668    -0.60650
H1723       H  0.80182393  0.06847730  0.27745181     0.43380
H1724       H  0.78202132  0.02943875  0.12133517     0.43340
C1725       C  0.78217135  0.96926400  0.22871142    -0.05720
C1726       C  0.81668930  0.96639253  0.23797316    -0.33150
C1727       C  0.83981610  0.94939897  0.21683943     0.36100
C1728       C  0.82821513  0.93449998  0.18629476    -0.06080
C1729       C  0.79299132  0.93367522  0.17945399    -0.33050
C1730       C  0.76994575  0.95071375  0.20063490     0.36000
H1731       H  0.82643639  0.98068402  0.25950185     0.16370
O1732       O  0.87402774  0.95098190  0.22426088    -0.60550
H1733       H  0.78360477  0.92201811  0.15622242     0.16390
O1734       O  0.73625978  0.95266225  0.19131820    -0.60650
H1735       H  0.72581334  0.93136314  0.19996816     0.43380
H1736       H  0.88210282  0.97256257  0.21388762     0.43340
C1737       C  0.68108566  0.06523084  0.32467915    -0.05720
C1738       C  0.67159467  0.05852275  0.29072696    -0.33150
C1739       C  0.69387728  0.04163093  0.26870243     0.36100
C1740       C  0.72589869  0.03082659  0.28071924    -0.06080
C1741       C  0.73717505  0.04177357  0.31284857    -0.33050
C1742       C  0.71497619  0.05874691  0.33496685     0.36000
H1743       H  0.64590588  0.06401249  0.28201424     0.16370
O1744       O  0.68251566  0.03200891  0.23706184    -0.60550
H1745       H  0.76191986  0.03380800  0.32228678     0.16390
O1746       O  0.72560745  0.06558103  0.36759820    -0.60650
H1747       H  0.72149935  0.04429650  0.38058009     0.43380
H1748       H  0.69073265  0.05000955  0.22137027     0.43340
C1749       C  0.72752563  0.96764373  0.28098276    -0.05720
C1750       C  0.69606548  0.95634413  0.26827898    -0.33150
C1751       C  0.67302960  0.93947937  0.28954808     0.36100
C1752       C  0.68182649  0.93301337  0.32384622    -0.06080
C1753       C  0.71542723  0.93946150  0.33472969    -0.33050
C1754       C  0.73828492  0.95673815  0.31342990     0.36000
H1755       H  0.68761093  0.96422161  0.24317568     0.16370
O1756       O  0.64122148  0.93137603  0.27722335    -0.60550
H1757       H  0.72295930  0.93413603  0.36078523     0.16390
O1758       O  0.76942452  0.96652755  0.32607355    -0.60650
H1759       H  0.78619195  0.95121783  0.31502793     0.43380
H1760       H  0.62851466  0.95319820  0.27629929     0.43340
C1761       C  0.03168038  0.77694348  0.22459742    -0.05720
C1762       C  0.04291860  0.76644197  0.19247549    -0.33150
C1763       C  0.06007126  0.78908768  0.17107106     0.36100
C1764       C  0.06648691  0.82279705  0.18193775    -0.06080
C1765       C  0.06012292  0.83137582  0.21605336    -0.33050
C1766       C  0.04283323  0.80852243  0.23744706     0.36000
H1767       H  0.03517655  0.74191921  0.18255378     0.16370
O1768       O  0.06741717  0.77900340  0.13842479    -0.60550
H1769       H  0.06546701  0.85684169  0.22517128     0.16390
O1770       O  0.03321542  0.81889347  0.26935206    -0.60650
H1771       H  0.05348449  0.81482329  0.28398077     0.43380
H1772       H  0.09188636  0.77257633  0.13889558     0.43340
C1773       C  0.96816951  0.77563057  0.22245363    -0.05720
C1774       C  0.95782624  0.80794073  0.23319313    -0.33150
C1775       C  0.94089263  0.82977333  0.21077957     0.36100
C1776       C  0.93394457  0.81920183  0.17704414    -0.06080
C1777       C  0.93909511  0.78495121  0.16835978    -0.33050
C1778       C  0.95641136  0.76312285  0.19090682     0.36000
H1779       H  0.96616732  0.81762514  0.25767956     0.16370
O1780       O  0.93426170  0.86244955  0.22111230    -0.60550
H1781       H  0.93286318  0.77598200  0.14298983     0.16390
O1782       O  0.96417949  0.73053441  0.18100891    -0.60650
H1783       H  0.97875485  0.73276092  0.16049178     0.43380
H1784       H  0.90978108  0.86252329  0.22747527     0.43340
C1785       C  0.03094330  0.72265902  0.27707985    -0.05720
C1786       C  0.04448425  0.69253321  0.26343142    -0.33150
C1787       C  0.06155777  0.66914833  0.28448034     0.36100
C1788       C  0.06538295  0.67621624  0.31950197    -0.06080
C1789       C  0.05697515  0.70887447  0.33143033    -0.33050
C1790       C  0.03953744  0.73193096  0.31057859     0.36000
H1791       H  0.03856274  0.68544923  0.23740667     0.16370
O1792       O  0.07064874  0.63811384  0.27142906    -0.60550
H1793       H  0.06117680  0.71552753  0.35791894     0.16390
O1794       O  0.02844462  0.76230831  0.32384912    -0.60650
H1795       H  0.01359046  0.75643587  0.34344529     0.43380
H1796       H  0.09473018  0.64083713  0.26418412     0.43340
C1797       C  0.96736460  0.72228755  0.27554642    -0.05720
C1798       C  0.95372821  0.73629667  0.30548798    -0.33150
C1799       C  0.93662906  0.71557711  0.32906557     0.36100
C1800       C  0.93285140  0.68055772  0.32232436    -0.06080
C1801       C  0.94099061  0.66837177  0.28964503    -0.33050
C1802       C  0.95842134  0.68893329  0.26637502     0.36000
H1803       H  0.95974708  0.76229442  0.31239002     0.16370
O1804       O  0.92754116  0.72893410  0.36000740    -0.60550
H1805       H  0.93664596  0.64191348  0.28317416     0.16390
O1806       O  0.96917891  0.67552798  0.23590268    -0.60650
H1807       H  0.98396412  0.65586555  0.24174635     0.43380
H1808       H  0.90352877  0.73638414  0.35708408     0.43340
C1809       C  0.21578416  0.03064958  0.77049904    -0.05720
C1810       C  0.22823034  0.03832396  0.80310088    -0.33150
C1811       C  0.20746070  0.05462586  0.82693878     0.36100
C1812       C  0.17382680  0.06410328  0.81796813    -0.06080
C1813       C  0.16357212  0.06121775  0.78370399    -0.33050
C1814       C  0.18446797  0.04466320  0.75995664     0.36000
H1815       H  0.25252852  0.02806829  0.81143960     0.16370
O1816       O  0.21955472  0.05925375  0.85948862    -0.60550
H1817       H  0.13820543  0.06905690  0.77595216     0.16390
O1818       O  0.17233553  0.03883817  0.72768724    -0.60650
H1819       H  0.18440773  0.05548276  0.71301346     0.43380
H1820       H  0.21857893  0.03647498  0.87038667     0.43340
C1821       C  0.21478049  0.96746740  0.76929676    -0.05720
C1822       C  0.22873890  0.95616285  0.80021118    -0.33150
C1823       C  0.20821172  0.93941200  0.82406214     0.36100
C1824       C  0.17353668  0.93309416  0.81653428    -0.06080
C1825       C  0.16141050  0.93953465  0.78346087    -0.33050
C1826       C  0.18186567  0.95670448  0.75985812     0.36000
H1827       H  0.25428101  0.96388679  0.80752818     0.16370
O1828       O  0.22165211  0.93117761  0.85534972    -0.60550
H1829       H  0.13502963  0.93435443  0.77691927     0.16390
O1830       O  0.16797550  0.96674561  0.72936153    -0.60650
H1831       H  0.16750231  0.94593914  0.71509694     0.43380
H1832       H  0.22300422  0.95295059  0.86806643     0.43340
C1833       C  0.26696641  0.03059714  0.71470933    -0.05720
C1834       C  0.25836642  0.03741381  0.68068132    -0.33150
C1835       C  0.28121442  0.05442614  0.65928210     0.36100
C1836       C  0.31311925  0.06509173  0.67210248    -0.06080
C1837       C  0.31964958  0.06221851  0.70722003    -0.33050
C1838       C  0.29654338  0.04544774  0.72861706     0.36000
H1839       H  0.23558638  0.02626691  0.66971478     0.16370
O1840       O  0.27403930  0.05623844  0.62509093    -0.60550
H1841       H  0.34376181  0.07088243  0.71766538     0.16390
O1842       O  0.30514127  0.03995892  0.76206574    -0.60650
H1843       H  0.29772901  0.06078882  0.77421625     0.43380
H1844       H  0.26102597  0.07768081  0.62216672     0.43340
C1845       C  0.31745101  0.93340578  0.67693397    -0.05720
C1846       C  0.28277945  0.93433751  0.66767943    -0.33150
C1847       C  0.25906898  0.95163707  0.68810034     0.36100
C1848       C  0.27000800  0.96752135  0.71829924    -0.06080
C1849       C  0.30311887  0.96138152  0.73030115    -0.33050
C1850       C  0.32700595  0.94490748  0.70973592     0.36000
H1851       H  0.27456320  0.92458204  0.64317834     0.16370
O1852       O  0.22592739  0.95519620  0.67724848    -0.60550
H1853       H  0.31162472  0.97284218  0.75394818     0.16390
O1854       O  0.36007591  0.94215044  0.72108652    -0.60650
H1855       H  0.37003886  0.96523801  0.71858541     0.43380
H1856       H  0.22701081  0.96781932  0.65537941     0.43340
C1857       C  0.03036367  0.22242475  0.77521276    -0.05720
C1858       C  0.03365202  0.18802862  0.76666663    -0.33150
C1859       C  0.04958456  0.16527715  0.78894424     0.36100
C1860       C  0.06401391  0.17714902  0.81987604    -0.06080
C1861       C  0.06597365  0.21238182  0.82529669    -0.33050
C1862       C  0.04887193  0.23507409  0.80333426     0.36000
H1863       H  0.02023314  0.17800648  0.74467386     0.16370
O1864       O  0.04890382  0.13122269  0.78116395    -0.60550
H1865       H  0.07809374  0.22219576  0.84810905     0.16390
O1866       O  0.04855532  0.26925826  0.81047094    -0.60650
H1867       H  0.04278307  0.27162763  0.83494427     0.43380
H1868       H  0.02530111  0.12360265  0.78628233     0.43340
C1869       C  0.96704623  0.22654475  0.77862739    -0.05720
C1870       C  0.95246868  0.19705268  0.76445810    -0.33150
C1871       C  0.93532201  0.17348039  0.78513302     0.36100
C1872       C  0.93295459  0.17935648  0.82045975    -0.06080
C1873       C  0.94242899  0.21146769  0.83319086    -0.33050
C1874       C  0.95962138  0.23492803  0.81256923     0.36000
H1875       H  0.95803046  0.19020267  0.73833315     0.16370
O1876       O  0.92481822  0.14323027  0.77126171    -0.60550
H1877       H  0.93927064  0.21729637  0.85999912     0.16390
O1878       O  0.97178466  0.26468392  0.82638386    -0.60650
H1879       H  0.98580283  0.25801625  0.84639572     0.43380
H1880       H  0.90049627  0.14682280  0.76517991     0.43340
C1881       C  0.03046834  0.27690187  0.72233489    -0.05720
C1882       C  0.03716917  0.26396527  0.68961612    -0.33150
C1883       C  0.05477599  0.28361846  0.66549746     0.36100
C1884       C  0.06600861  0.31649192  0.67433156    -0.06080
C1885       C  0.06362973  0.32702828  0.70843530    -0.33050
C1886       C  0.04586341  0.30761004  0.73236597     0.36000
H1887       H  0.02536012  0.24037994  0.68153549     0.16370
O1888       O  0.05656842  0.27243125  0.63245535    -0.60550
H1889       H  0.07265204  0.35203368  0.71585784     0.16390
O1890       O  0.03929224  0.32126606  0.76384637    -0.60650
H1891       H  0.06191486  0.32450294  0.77479157     0.43380
H1892       H  0.07864941  0.26021088  0.63092416     0.43340
C1893       C  0.96740292  0.28255930  0.72788464    -0.05720
C1894       C  0.96098408  0.31596518  0.73883725    -0.33150
C1895       C  0.94319387  0.33889303  0.71789251     0.36100
C1896       C  0.93111405  0.32814678  0.68577963    -0.06080
C1897       C  0.93343672  0.29349228  0.67724798    -0.33050
C1898       C  0.95128600  0.27071465  0.69813338     0.36000
H1899       H  0.97292706  0.32535606  0.76190058     0.16370
O1900       O  0.94109171  0.37239919  0.72743268    -0.60550
H1901       H  0.92382335  0.28456137  0.65291859     0.16390
O1902       O  0.95666414  0.23809617  0.68700548    -0.60650
H1903       H  0.93470096  0.22613080  0.69075615     0.43380
H1904       H  0.96269441  0.38294610  0.71955002     0.43340
loop_ 
_geom_bond_atom_site_label_1 
_geom_bond_atom_site_label_2 
_geom_bond_distance 
_geom_bond_site_symmetry_2 
_ccdc_geom_bond_type 
C1            C2   1.352       .  D
C1         C1881   1.484   1_655  S
C1         C1893   1.487       .  S
C2         C1857   1.489   1_655  S
C2         C1869   1.485       .  S
C3            C4   1.347       .  D
C3         C1833   1.482   1_565  S
C3         C1848   1.482       .  S
C4         C1809   1.483   1_565  S
C4         C1821   1.480       .  S
C5            C6   1.347       .  D
C5         C1785   1.483   1_655  S
C5         C1797   1.483       .  S
C6         C1761   1.484   1_655  S
C6         C1773   1.482       .  S
C7            C8   1.347       .  D
C7         C1713   1.481   1_565  S
C7         C1725   1.482       .  S
C8         C1740   1.481   1_565  S
C8         C1749   1.481       .  S
C9           C10   1.346       .  D
C9         C1689   1.481   1_556  S
C9         C1701   1.481       .  S
C10        C1665   1.481   1_556  S
C10        C1677   1.482       .  S
C11          C12   1.347       .  D
C11        C1644   1.481       .  S
C11        C1656   1.483   1_554  S
C12        C1617   1.484       .  S
C12        C1632   1.482   1_554  S
C13          C14   1.347       .  D
C13        C1569   1.482       .  S
C13        C1581   1.483   1_554  S
C14        C1593   1.484       .  S
C14        C1605   1.482   1_554  S
C15          C16   1.351       .  D
C15        C1545   1.484       .  S
C15        C1557   1.484   1_545  S
C16        C1521   1.484       .  S
C16        C1536   1.485   1_545  S
C17          C18   1.347       .  D
C17        C1497   1.484   1_655  S
C17        C1509   1.481       .  S
C18        C1473   1.482   1_655  S
C18        C1485   1.483       .  S
O19         Cr37   1.987       .  S
O19          C27   1.260       .  A
O20         Cr37   1.994       .  S
O20          C21   1.263       .  A
C21          O22   1.260       .  A
C21        C1824   1.477       .  S
O22         Cr38   1.981       .  S
O23         Cr38   1.981       .  S
O23          C24   1.259       .  A
C24          O25   1.262       .  A
C24        C1476   1.482       .  S
O25         Cr39   1.996       .  S
O26         Cr39   1.986       .  S
O26          C27   1.262       .  A
C27        C1629   1.476       .  S
O28         Cr37   1.987       .  S
O28          C36   1.261       .  A
O29         Cr37   1.991       .  S
O29          C30   1.259       .  A
C30          O31   1.263       .  A
C30         C165   1.469   1_565  S
O31         Cr38   1.991       .  S
O32         Cr38   1.983       .  S
O32          C33   1.263       .  A
C33          O34   1.264       .  A
C33          C58   1.466   1_455  S
O34         Cr39   2.000       .  S
O35         Cr39   1.982       .  S
O35          C36   1.262       .  A
C36          C77   1.458   1_556  S
Cr37         O40   1.783       .  S
Cr38         O40   1.774       .  S
Cr39         O40   1.777       .  S
O41         Cr59   1.991       .  S
O41          C49   1.260       .  A
O42         Cr59   1.994       .  S
O42          C43   1.263       .  A
C43          O44   1.260       .  A
C43        C1533   1.482       .  S
O44         Cr60   1.986       .  S
O45         Cr60   1.981       .  S
O45          C46   1.261       .  A
C46          O47   1.261       .  A
C46        C1584   1.481       .  S
O47         Cr61   1.994       .  S
O48         Cr61   1.985       .  S
O48          C49   1.261       .  A
C49        C1488   1.482       .  S
O50         Cr59   1.998       .  S
O50          C58   1.264       .  A
O51         Cr59   1.989       .  S
O51          C52   1.261       .  A
C52          O53   1.263       .  A
C52         C121   1.472   1_565  S
O53         Cr60   1.995       .  S
O54         Cr60   1.991       .  S
O54          C55   1.265       .  A
C55          O56   1.263       .  A
C55         C102   1.471   1_556  S
O56         Cr61   1.998       .  S
O57         Cr61   1.984       .  S
O57          C58   1.263       .  A
Cr59         O62   1.784       .  S
Cr60         O62   1.779       .  S
Cr61         O62   1.781       .  S
O63         Cr81   2.000       .  S
O63          C71   1.261       .  A
O64         Cr81   1.988       .  S
O64          C65   1.262       .  A
C65          O66   1.259       .  A
C65        C1461   1.475       .  S
O66         Cr82   1.981       .  S
O67         Cr82   1.993       .  S
O67          C68   1.264       .  A
C68          O69   1.262       .  A
C68        C1620   1.477       .  S
O69         Cr83   1.987       .  S
O70         Cr83   1.978       .  S
O70          C71   1.257       .  A
C71        C1764   1.482       .  S
O72         Cr81   2.004       .  S
O72          C80   1.266       .  A
O73         Cr81   1.990       .  S
O73          C74   1.264       .  A
C74          O75   1.264       .  A
C74         C190   1.477   1_565  S
O75         Cr82   2.004       .  S
O76         Cr82   1.981       .  S
O76          C77   1.260       .  A
C77          O78   1.257       .  A
O78         Cr83   1.985       .  S
O79         Cr83   1.980       .  S
O79          C80   1.263       .  A
C80          C99   1.465   1_455  S
Cr81         O84   1.783       .  S
Cr82         O84   1.785       .  S
Cr83         O84   1.785       .  S
O85        Cr103   1.988       .  S
O85          C93   1.259       .  A
O86        Cr103   1.991       .  S
O86          C87   1.263       .  A
C87          O88   1.260       .  A
C87        C1728   1.476       .  S
O88        Cr104   1.983       .  S
O89        Cr104   1.983       .  S
O89          C90   1.261       .  A
C90          O91   1.262       .  A
C90        C1776   1.480       .  S
O91        Cr105   1.994       .  S
O92        Cr105   1.985       .  S
O92          C93   1.260       .  A
C93        C1572   1.480       .  S
O94        Cr103   2.006       .  S
O94         C102   1.266       .  A
O95        Cr103   1.979       .  S
O95          C96   1.261       .  A
C96          O97   1.260       .  A
C96         C140   1.460   1_565  S
O97        Cr104   1.988       .  S
O98        Cr104   1.983       .  S
O98          C99   1.261       .  A
C99         O100   1.262       .  A
O100       Cr105   1.997       .  S
O101       Cr105   1.986       .  S
O101        C102   1.264       .  A
Cr103       O106   1.784       .  S
Cr104       O106   1.783       .  S
Cr105       O106   1.782       .  S
O107       Cr125   1.982       .  S
O107        C115   1.260       .  A
O108       Cr125   1.984       .  S
O108        C109   1.261       .  A
C109        O110   1.265       .  A
C109       C1680   1.481       .  S
O110       Cr126   1.996       .  S
O111       Cr126   1.983       .  S
O111        C112   1.259       .  A
C112        O113   1.263       .  A
C112       C1524   1.480       .  S
O113       Cr127   1.993       .  S
O114       Cr127   1.998       .  S
O114        C115   1.262       .  A
C115       C1872   1.484       .  S
O116       Cr125   1.986       .  S
O116        C124   1.264       .  A
O117       Cr125   1.993       .  S
O117        C118   1.262       .  A
C118        O119   1.262       .  A
C118        C143   1.472   1_556  S
O119       Cr126   1.993       .  S
O120       Cr126   1.997       .  S
O120        C121   1.265       .  A
C121        O122   1.262       .  A
O122       Cr127   1.990       .  S
O123       Cr127   1.999       .  S
O123        C124   1.264       .  A
C124        C162   1.465   1_655  S
Cr125       O128   1.776       .  S
Cr126       O128   1.778       .  S
Cr127       O128   1.779       .  S
O129       Cr147   1.985       .  S
O129        C137   1.259       .  A
O130       Cr147   1.988       .  S
O130        C131   1.262       .  A
C131        O132   1.260       .  A
C131       C1716   1.473       .  S
O132       Cr148   1.984       .  S
O133       Cr148   2.000       .  S
O133        C134   1.265       .  A
C134        O135   1.258       .  A
C134       C1668   1.476       .  S
O135       Cr149   1.976       .  S
O136       Cr149   1.993       .  S
O136        C137   1.263       .  A
C137       C1449   1.478       .  S
O138       Cr147   2.001       .  S
O138        C146   1.264       .  A
O139       Cr147   1.975       .  S
O139        C140   1.260       .  A
C140        O141   1.263       .  A
O141       Cr148   1.997       .  S
O142       Cr148   1.988       .  S
O142        C143   1.260       .  A
C143        O144   1.265       .  A
O144       Cr149   2.001       .  S
O145       Cr149   1.981       .  S
O145        C146   1.262       .  A
C146        C184   1.466   1_655  S
Cr147       O150   1.778       .  S
Cr148       O150   1.782       .  S
Cr149       O150   1.775       .  S
O151       Cr169   1.996       .  S
O151        C159   1.263       .  A
O152       Cr169   2.006       .  S
O152        C153   1.264       .  A
C153        O154   1.256       .  A
C153       C1860   1.487       .  S
O154       Cr170   1.974       .  S
O155       Cr170   1.989       .  S
O155        C156   1.263       .  A
C156        O157   1.265       .  A
C156       C1812   1.484       .  S
O157       Cr171   1.995       .  S
O158       Cr171   1.981       .  S
O158        C159   1.259       .  A
C159       C1440   1.478       .  S
O160       Cr169   1.996       .  S
O160        C168   1.263       .  A
O161       Cr169   1.999       .  S
O161        C162   1.265       .  A
C162        O163   1.265       .  A
O163       Cr170   1.986       .  S
O164       Cr170   1.984       .  S
O164        C165   1.260       .  A
C165        O166   1.261       .  A
O166       Cr171   1.995       .  S
O167       Cr171   1.995       .  S
O167        C168   1.264       .  A
C168        C187   1.475   1_556  S
Cr169       O172   1.779       .  S
Cr170       O172   1.776       .  S
Cr171       O172   1.780       .  S
O173       Cr191   1.990       .  S
O173        C181   1.260       .  A
O174       Cr191   1.988       .  S
O174        C175   1.262       .  A
C175        O176   1.260       .  A
C175       C1404   1.478       .  S
O176       Cr192   1.986       .  S
O177       Cr192   1.990       .  S
O177        C178   1.262       .  A
C178        O179   1.260       .  A
C178       C1428   1.485       .  S
O179       Cr193   1.991       .  S
O180       Cr193   1.985       .  S
O180        C181   1.260       .  A
C181       C1416   1.476       .  S
O182       Cr191   2.000       .  S
O182        C190   1.264       .  A
O183       Cr191   1.985       .  S
O183        C184   1.262       .  A
C184        O185   1.262       .  A
O185       Cr192   1.995       .  S
O186       Cr192   1.989       .  S
O186        C187   1.262       .  A
C187        O188   1.265       .  A
O188       Cr193   2.002       .  S
O189       Cr193   1.995       .  S
O189        C190   1.266       .  A
Cr191       O194   1.785       .  S
Cr192       O194   1.787       .  S
Cr193       O194   1.782       .  S
C195        C196   1.351       .  D
C195       C1368   1.487       .  S
C195       C1389   1.482       .  S
C196       C1353   1.481       .  S
C196       C1380   1.488       .  S
C197        C198   1.351       .  D
C197       C1317   1.486       .  S
C197       C1344   1.484       .  S
C198       C1305   1.483       .  S
C198       C1329   1.486       .  S
C199        C200   1.347       .  D
C199       C1272   1.482       .  S
C199       C1293   1.483       .  S
C200       C1257   1.482       .  S
C200       C1281   1.482       .  S
C201        C202   1.352       .  D
C201       C1233   1.485   1_556  S
C201       C1248   1.488       .  S
C202       C1425   1.487   1_556  S
C202       C1437   1.486       .  S
C203        C204   1.349       .  D
C203       C1413   1.485       .  S
C203       C1464   1.480   1_545  S
C204       C1209   1.479       .  S
C204       C1224   1.488   1_545  S
C205        C206   1.351       .  D
C205       C1173   1.485       .  S
C205       C1197   1.484       .  S
C206       C1161   1.484       .  S
C206       C1185   1.486       .  S
C207        C208   1.347       .  D
C207       C1137   1.482       .  S
C207       C1152   1.482       .  S
C208       C1113   1.482       .  S
C208       C1128   1.482       .  S
C209        C210   1.348       .  D
C209       C1080   1.480       .  S
C209       C1104   1.486       .  S
C210       C1065   1.485       .  S
C210       C1089   1.479       .  S
O211       Cr229   2.002       .  S
O211        C219   1.265       .  A
O212       Cr229   1.993       .  S
O212        C213   1.261       .  A
C213        O214   1.261       .  A
C213       C1116   1.481       .  S
O214       Cr230   1.983       .  S
O215       Cr230   1.994       .  S
O215        C216   1.263       .  A
C216        O217   1.263       .  A
C216       C1068   1.481       .  S
O217       Cr231   1.990       .  S
O218       Cr231   1.980       .  S
O218        C219   1.259       .  A
C219       C1221   1.477       .  S
O220       Cr229   1.989       .  S
O220        C228   1.260       .  A
O221       Cr229   2.006       .  S
O221        C222   1.265       .  A
C222        O223   1.264       .  A
C222        C379   1.469       .  S
O223       Cr230   1.984       .  S
O224       Cr230   1.995       .  S
O224        C225   1.261       .  A
C225        O226   1.262       .  A
C225        C266   1.465       .  S
O226       Cr231   1.985       .  S
O227       Cr231   1.999       .  S
O227        C228   1.264       .  A
C228        C244   1.472   1_565  S
Cr229       O232   1.783       .  S
Cr230       O232   1.781       .  S
Cr231       O232   1.780       .  S
O233       Cr251   1.985       .  S
O233        C241   1.260       .  A
O234       Cr251   1.981       .  S
O234        C235   1.261       .  A
C235        O236   1.261       .  A
C235       C1212   1.482       .  S
O236       Cr252   1.992       .  S
O237       Cr252   1.981       .  S
O237        C238   1.259       .  A
C238        O239   1.261       .  A
C238       C1365   1.482       .  S
O239       Cr253   1.996       .  S
O240       Cr253   1.990       .  S
O240        C241   1.263       .  A
C241       C1308   1.479       .  S
O242       Cr251   1.982       .  S
O242        C250   1.258       .  A
O243       Cr251   1.988       .  S
O243        C244   1.261       .  A
C244        O245   1.264       .  A
O245       Cr252   2.001       .  S
O246       Cr252   1.991       .  S
O246        C247   1.266       .  A
C247        O248   1.265       .  A
C247        C288   1.472       .  S
O248       Cr253   2.000       .  S
O249       Cr253   1.981       .  S
O249        C250   1.261       .  A
C250        C354   1.457       .  S
Cr251       O254   1.784       .  S
Cr252       O254   1.777       .  S
Cr253       O254   1.781       .  S
O255       Cr273   1.994       .  S
O255        C263   1.263       .  A
O256       Cr273   1.986       .  S
O256        C257   1.260       .  A
C257        O258   1.261       .  A
C257       C1092   1.476       .  S
O258       Cr274   1.988       .  S
O259       Cr274   1.985       .  S
O259        C260   1.260       .  A
C260        O261   1.263       .  A
C260       C1053   1.480       .  S
O261       Cr275   1.991       .  S
O262       Cr275   1.984       .  S
O262        C263   1.260       .  A
C263       C1752   1.480       .  S
O264       Cr273   1.981       .  S
O264        C272   1.259       .  A
O265       Cr273   1.996       .  S
O265        C266   1.263       .  A
C266        O267   1.264       .  A
O267       Cr274   1.987       .  S
O268       Cr274   2.000       .  S
O268        C269   1.265       .  A
C269        O270   1.263       .  A
C269        C316   1.476       .  S
O270       Cr275   1.994       .  S
O271       Cr275   1.992       .  S
O271        C272   1.264       .  A
C272        C291   1.463   1_565  S
Cr273       O276   1.777       .  S
Cr274       O276   1.773       .  S
Cr275       O276   1.776       .  S
O277       Cr295   1.994       .  S
O277        C285   1.262       .  A
O278       Cr295   1.986       .  S
O278        C279   1.262       .  A
C279        O280   1.260       .  A
C279       C1392   1.480       .  S
O280       Cr296   1.988       .  S
O281       Cr296   1.994       .  S
O281        C282   1.264       .  A
C282        O283   1.261       .  A
C282       C1737   1.480       .  S
O283       Cr297   1.984       .  S
O284       Cr297   1.986       .  S
O284        C285   1.260       .  A
C285       C1041   1.483       .  S
O286       Cr295   2.001       .  S
O286        C294   1.266       .  A
O287       Cr295   1.992       .  S
O287        C288   1.265       .  A
C288        O289   1.263       .  A
O289       Cr296   1.998       .  S
O290       Cr296   1.986       .  S
O290        C291   1.260       .  A
C291        O292   1.261       .  A
O292       Cr297   1.985       .  S
O293       Cr297   1.993       .  S
O293        C294   1.263       .  A
C294        C335   1.475       .  S
Cr295       O298   1.775       .  S
Cr296       O298   1.782       .  S
Cr297       O298   1.779       .  S
O299       Cr317   1.972       .  S
O299        C307   1.257       .  A
O300       Cr317   2.000       .  S
O300        C301   1.265       .  A
C301        O302   1.260       .  A
C301       C1200   1.477       .  S
O302       Cr318   1.981       .  S
O303       Cr318   1.994       .  S
O303        C304   1.263       .  A
C304        O305   1.261       .  A
C304       C1560   1.481       .  S
O305       Cr319   1.987       .  S
O306       Cr319   2.004       .  S
O306        C307   1.265       .  A
C307       C1029   1.474       .  S
O308       Cr317   2.000       .  S
O308        C316   1.265       .  A
O309       Cr317   1.987       .  S
O309        C310   1.260       .  A
C310        O311   1.265       .  A
C310        C376   1.469       .  S
O311       Cr318   1.996       .  S
O312       Cr318   1.987       .  S
O312        C313   1.262       .  A
C313        O314   1.267       .  A
C313        C338   1.473   1_565  S
O314       Cr319   2.005       .  S
O315       Cr319   1.995       .  S
O315        C316   1.263       .  A
Cr317       O320   1.776       .  S
Cr318       O320   1.776       .  S
Cr319       O320   1.777       .  S
O321       Cr339   1.991       .  S
O321        C329   1.263       .  A
O322       Cr339   1.990       .  S
O322        C323   1.262       .  A
C323        O324   1.263       .  A
C323       C1017   1.481       .  S
O324       Cr340   1.993       .  S
O325       Cr340   1.979       .  S
O325        C326   1.259       .  A
C326        O327   1.264       .  A
C326       C1005   1.477       .  S
O327       Cr341   1.995       .  S
O328       Cr341   1.988       .  S
O328        C329   1.260       .  A
C329       C1548   1.479       .  S
O330       Cr339   1.993       .  S
O330        C338   1.264       .  A
O331       Cr339   1.996       .  S
O331        C332   1.264       .  A
C332        O333   1.262       .  A
C332        C357   1.467       .  S
O333       Cr340   1.985       .  S
O334       Cr340   1.998       .  S
O334        C335   1.265       .  A
C335        O336   1.262       .  A
O336       Cr341   1.995       .  S
O337       Cr341   1.998       .  S
O337        C338   1.265       .  A
Cr339       O342   1.776       .  S
Cr340       O342   1.775       .  S
Cr341       O342   1.777       .  S
O343       Cr361   1.976       .  S
O343        C351   1.258       .  A
O344       Cr361   1.993       .  S
O344        C345   1.265       .  A
C345        O346   1.262       .  A
C345       C1332   1.480       .  S
O346       Cr362   1.988       .  S
O347       Cr362   1.986       .  S
O347        C348   1.261       .  A
C348        O349   1.261       .  A
C348        C993   1.478       .  S
O349       Cr363   1.989       .  S
O350       Cr363   2.002       .  S
O350        C351   1.265       .  A
C351       C1836   1.478       .  S
O352       Cr361   2.002       .  S
O352        C360   1.266       .  A
O353       Cr361   1.980       .  S
O353        C354   1.261       .  A
C354        O355   1.259       .  A
O355       Cr362   1.987       .  S
O356       Cr362   1.981       .  S
O356        C357   1.260       .  A
C357        O358   1.267       .  A
O358       Cr363   2.003       .  S
O359       Cr363   1.996       .  S
O359        C360   1.263       .  A
C360        C382   1.478   1_545  S
Cr361       O364   1.771       .  S
Cr362       O364   1.779       .  S
Cr363       O364   1.778       .  S
O365       Cr383   1.985       .  S
O365        C373   1.260       .  A
O366       Cr383   1.994       .  S
O366        C367   1.262       .  A
C367        O368   1.262       .  A
C367       C1176   1.484       .  S
O368       Cr384   1.987       .  S
O369       Cr384   1.995       .  S
O369        C370   1.262       .  A
C370        O371   1.261       .  A
C370       C1125   1.482       .  S
O371       Cr385   1.981       .  S
O372       Cr385   1.991       .  S
O372        C373   1.261       .  A
C373       C1845   1.483       .  S
O374       Cr383   1.998       .  S
O374        C382   1.265       .  A
O375       Cr383   1.989       .  S
O375        C376   1.263       .  A
C376        O377   1.262       .  A
O377       Cr384   1.993       .  S
O378       Cr384   1.990       .  S
O378        C379   1.261       .  A
C379        O380   1.266       .  A
O380       Cr385   1.995       .  S
O381       Cr385   2.000       .  S
O381        C382   1.266       .  A
Cr383       O386   1.781       .  S
Cr384       O386   1.781       .  S
Cr385       O386   1.777       .  S
C387        C388   1.346       .  D
C387       C1032   1.482       .  S
C387       C1056   1.480       .  S
C388        C969   1.482       .  S
C388        C981   1.481       .  S
C389        C390   1.347       .  D
C389        C945   1.485       .  S
C389        C960   1.479       .  S
C390        C921   1.479       .  S
C390        C933   1.486       .  S
C391        C392   1.346       .  D
C391        C996   1.479       .  S
C391       C1020   1.483       .  S
C392        C897   1.483       .  S
C392        C909   1.479       .  S
O393       Cr411   1.987       .  S
O393        C401   1.261       .  A
O394       Cr411   1.983       .  S
O394        C395   1.260       .  A
C395        O396   1.262       .  A
C395       C1596   1.485       .  S
O396       Cr412   1.997       .  S
O397       Cr412   1.991       .  S
O397        C398   1.263       .  A
C398        O399   1.260       .  A
C398        C888   1.476       .  S
O399       Cr413   1.982       .  S
O400       Cr413   1.997       .  S
O400        C401   1.264       .  A
C401       C1101   1.481       .  S
O402       Cr411   1.992       .  S
O402        C410   1.263       .  A
O403       Cr411   1.983       .  S
O403        C404   1.263       .  A
C404        O405   1.263       .  A
C404        C426   1.461   1_554  S
O405       Cr412   1.993       .  S
O406       Cr412   1.994       .  S
O406        C407   1.262       .  A
C407        O408   1.264       .  A
C407        C520   1.475       .  S
O408       Cr413   1.998       .  S
O409       Cr413   1.996       .  S
O409        C410   1.263       .  A
C410        C451   1.472       .  S
Cr411       O414   1.776       .  S
Cr412       O414   1.780       .  S
Cr413       O414   1.778       .  S
O415       Cr433   1.983       .  S
O415        C423   1.261       .  A
O416       Cr433   1.979       .  S
O416        C417   1.259       .  A
C417        O418   1.263       .  A
C417       C1608   1.480       .  S
O418       Cr434   1.997       .  S
O419       Cr434   1.993       .  S
O419        C420   1.261       .  A
C420        O421   1.259       .  A
C420       C1188   1.482       .  S
O421       Cr435   1.986       .  S
O422       Cr435   1.994       .  S
O422        C423   1.265       .  A
C423        C876   1.477       .  S
O424       Cr433   1.986       .  S
O424        C432   1.259       .  A
O425       Cr433   1.980       .  S
O425        C426   1.261       .  A
C426        O427   1.263       .  A
O427       Cr434   1.998       .  S
O428       Cr434   1.990       .  S
O428        C429   1.263       .  A
C429        O430   1.268       .  A
C429        C470   1.475       .  S
O430       Cr435   2.006       .  S
O431       Cr435   1.989       .  S
O431        C432   1.262       .  A
C432        C495   1.465       .  S
Cr433       O436   1.781       .  S
Cr434       O436   1.782       .  S
Cr435       O436   1.779       .  S
O437       Cr455   1.998       .  S
O437        C445   1.265       .  A
O438       Cr455   1.989       .  S
O438        C439   1.260       .  A
C439        O440   1.260       .  A
C439       C1641   1.477       .  S
O440       Cr456   1.986       .  S
O441       Cr456   1.989       .  S
O441        C442   1.261       .  A
C442        O443   1.262       .  A
C442       C1077   1.480       .  S
O443       Cr457   1.989       .  S
O444       Cr457   1.974       .  S
O444        C445   1.258       .  A
C445       C1284   1.473       .  S
O446       Cr455   1.987       .  S
O446        C454   1.259       .  A
O447       Cr455   1.997       .  S
O447        C448   1.265       .  A
C448        O449   1.264       .  A
C448        C473   1.463   1_554  S
O449       Cr456   1.983       .  S
O450       Cr456   2.001       .  S
O450        C451   1.266       .  A
C451        O452   1.261       .  A
O452       Cr457   1.989       .  S
O453       Cr457   1.986       .  S
O453        C454   1.262       .  A
C454        C561   1.465       .  S
Cr455       O458   1.779       .  S
Cr456       O458   1.772       .  S
Cr457       O458   1.776       .  S
O459       Cr477   1.989       .  S
O459        C467   1.261       .  A
O460       Cr477   1.991       .  S
O460        C461   1.261       .  A
C461        O462   1.261       .  A
C461       C1164   1.481       .  S
O462       Cr478   1.987       .  S
O463       Cr478   1.989       .  S
O463        C464   1.261       .  A
C464        O465   1.263       .  A
C464       C1653   1.478       .  S
O465       Cr479   1.989       .  S
O466       Cr479   1.988       .  S
O466        C467   1.260       .  A
C467        C936   1.481       .  S
O468       Cr477   1.993       .  S
O468        C476   1.266       .  A
O469       Cr477   2.005       .  S
O469        C470   1.266       .  A
C470        O471   1.262       .  A
O471       Cr478   1.988       .  S
O472       Cr478   1.992       .  S
O472        C473   1.260       .  A
C473        O474   1.261       .  A
O474       Cr479   1.983       .  S
O475       Cr479   2.001       .  S
O475        C476   1.264       .  A
C476        C536   1.475       .  S
Cr477       O480   1.782       .  S
Cr478       O480   1.786       .  S
Cr479       O480   1.783       .  S
O481       Cr499   1.980       .  S
O481        C489   1.260       .  A
O482       Cr499   1.991       .  S
O482        C483   1.262       .  A
C483        O484   1.260       .  A
C483       C1704   1.479       .  S
O484       Cr500   1.988       .  S
O485       Cr500   1.989       .  S
O485        C486   1.262       .  A
C486        O487   1.261       .  A
C486        C861   1.479       .  S
O487       Cr501   1.990       .  S
O488       Cr501   1.996       .  S
O488        C489   1.265       .  A
C489        C912   1.479       .  S
O490       Cr499   1.991       .  S
O490        C498   1.262       .  A
O491       Cr499   1.993       .  S
O491        C492   1.262       .  A
C492        O493   1.266       .  A
C492        C514   1.475   1_556  S
O493       Cr500   2.003       .  S
O494       Cr500   1.983       .  S
O494        C495   1.263       .  A
C495        O496   1.263       .  A
O496       Cr501   1.998       .  S
O497       Cr501   1.985       .  S
O497        C498   1.260       .  A
C498        C542   1.465       .  S
Cr499       O502   1.777       .  S
Cr500       O502   1.772       .  S
Cr501       O502   1.780       .  S
O503       Cr521   1.993       .  S
O503        C511   1.263       .  A
O504       Cr521   1.988       .  S
O504        C505   1.261       .  A
C505        O506   1.263       .  A
C505       C1692   1.481       .  S
O506       Cr522   1.991       .  S
O507       Cr522   1.984       .  S
O507        C508   1.260       .  A
C508        O509   1.265       .  A
C508       C1377   1.481       .  S
O509       Cr523   1.999       .  S
O510       Cr523   1.990       .  S
O510        C511   1.260       .  A
C511        C849   1.484       .  S
O512       Cr521   1.993       .  S
O512        C520   1.264       .  A
O513       Cr521   2.001       .  S
O513        C514   1.265       .  A
C514        O515   1.263       .  A
O515       Cr522   1.993       .  S
O516       Cr522   1.991       .  S
O516        C517   1.264       .  A
C517        O518   1.263       .  A
C517        C564   1.473       .  S
O518       Cr523   1.997       .  S
O519       Cr523   2.001       .  S
O519        C520   1.267       .  A
Cr521       O524   1.778       .  S
Cr522       O524   1.778       .  S
Cr523       O524   1.779       .  S
O525       Cr543   2.000       .  S
O525        C533   1.264       .  A
O526       Cr543   1.985       .  S
O526        C527   1.259       .  A
C527        O528   1.262       .  A
C527        C924   1.475       .  S
O528       Cr544   1.984       .  S
O529       Cr544   1.987       .  S
O529        C530   1.261       .  A
C530        O531   1.264       .  A
C530       C1245   1.481       .  S
O531       Cr545   1.996       .  S
O532       Cr545   1.979       .  S
O532        C533   1.259       .  A
C533        C900   1.478       .  S
O534       Cr543   1.981       .  S
O534        C542   1.260       .  A
O535       Cr543   2.006       .  S
O535        C536   1.265       .  A
C536        O537   1.265       .  A
O537       Cr544   1.991       .  S
O538       Cr544   1.997       .  S
O538        C539   1.265       .  A
C539        O540   1.262       .  A
C539        C558   1.475   1_556  S
O540       Cr545   1.993       .  S
O541       Cr545   1.996       .  S
O541        C542   1.265       .  A
Cr543       O546   1.782       .  S
Cr544       O546   1.775       .  S
Cr545       O546   1.780       .  S
O547       Cr565   1.992       .  S
O547        C555   1.262       .  A
O548       Cr565   1.994       .  S
O548        C549   1.264       .  A
C549        O550   1.259       .  A
C549       C1236   1.481       .  S
O550       Cr566   1.985       .  S
O551       Cr566   1.991       .  S
O551        C552   1.264       .  A
C552        O553   1.262       .  A
C552       C1260   1.483       .  S
O553       Cr567   1.990       .  S
O554       Cr567   1.982       .  S
O554        C555   1.259       .  A
C555       C1356   1.481       .  S
O556       Cr565   1.995       .  S
O556        C564   1.266       .  A
O557       Cr565   1.997       .  S
O557        C558   1.263       .  A
C558        O559   1.265       .  A
O559       Cr566   1.995       .  S
O560       Cr566   1.991       .  S
O560        C561   1.262       .  A
C561        O562   1.261       .  A
O562       Cr567   1.982       .  S
O563       Cr567   1.996       .  S
O563        C564   1.264       .  A
Cr565       O568   1.774       .  S
Cr566       O568   1.776       .  S
Cr567       O568   1.776       .  S
C569        C570   1.350       .  D
C569        C864   1.485       .  S
C569        C873   1.484       .  S
C570        C825   1.484       .  S
C570        C837   1.487       .  S
C571        C572   1.347       .  D
C571       C1401   1.482   1_655  S
C571       C1452   1.481       .  S
C572        C801   1.481   1_655  S
C572        C813   1.484       .  S
C573        C574   1.350       .  D
C573        C780   1.481       .  S
C573        C789   1.486       .  S
C574       C1008   1.481       .  S
C574       C1044   1.486       .  S
C575        C576   1.350       .  D
C575        C852   1.487       .  S
C575        C885   1.482       .  S
C576        C753   1.482       .  S
C576        C765   1.489       .  S
O577       Cr595   1.992       .  S
O577        C585   1.260       .  A
O578       Cr595   1.994       .  S
O578        C579   1.264       .  A
C579        O580   1.260       .  A
C579       C1140   1.476       .  S
O580       Cr596   1.982       .  S
O581       Cr596   1.984       .  S
O581        C582   1.261       .  A
C582        O583   1.261       .  A
C582       C1788   1.482       .  S
O583       Cr597   1.994       .  S
O584       Cr597   1.979       .  S
O584        C585   1.260       .  A
C585       C1296   1.480       .  S
O586       Cr595   2.000       .  S
O586        C594   1.264       .  A
O587       Cr595   1.991       .  S
O587        C588   1.261       .  A
C588        O589   1.263       .  A
C588        C654   1.471       .  S
O589       Cr596   1.995       .  S
O590       Cr596   1.988       .  S
O590        C591   1.264       .  A
C591        O592   1.262       .  A
C591        C610   1.467   1_455  S
O592       Cr597   1.997       .  S
O593       Cr597   1.980       .  S
O593        C594   1.263       .  A
C594        C698   1.465       .  S
Cr595       O598   1.783       .  S
Cr596       O598   1.778       .  S
Cr597       O598   1.778       .  S
O599       Cr617   1.986       .  S
O599        C607   1.261       .  A
O600       Cr617   1.984       .  S
O600        C601   1.262       .  A
C601        O602   1.261       .  A
C601       C1800   1.482       .  S
O602       Cr618   1.993       .  S
O603       Cr618   1.988       .  S
O603        C604   1.261       .  A
C604        O605   1.260       .  A
C604        C972   1.480       .  S
O605       Cr619   1.988       .  S
O606       Cr619   1.995       .  S
O606        C607   1.264       .  A
C607        C768   1.479       .  S
O608       Cr617   1.993       .  S
O608        C616   1.263       .  A
O609       Cr617   1.990       .  S
O609        C610   1.264       .  A
C610        O611   1.262       .  A
O611       Cr618   1.995       .  S
O612       Cr618   1.986       .  S
O612        C613   1.262       .  A
C613        O614   1.266       .  A
C613        C635   1.471       .  S
O614       Cr619   2.003       .  S
O615       Cr619   1.996       .  S
O615        C616   1.264       .  A
C616        C679   1.474       .  S
Cr617       O620   1.776       .  S
Cr618       O620   1.780       .  S
Cr619       O620   1.779       .  S
O621       Cr639   1.986       .  S
O621        C629   1.263       .  A
O622       Cr639   1.992       .  S
O622        C623   1.260       .  A
C623        O624   1.261       .  A
C623        C840   1.480       .  S
O624       Cr640   1.987       .  S
O625       Cr640   1.986       .  S
O625        C626   1.260       .  A
C626        O627   1.262       .  A
C626        C984   1.479       .  S
O627       Cr641   1.990       .  S
O628       Cr641   1.985       .  S
O628        C629   1.261       .  A
C629       C1512   1.474       .  S
O630       Cr639   1.984       .  S
O630        C638   1.262       .  A
O631       Cr639   1.999       .  S
O631        C632   1.264       .  A
C632        O633   1.264       .  A
C632        C723   1.469       .  S
O633       Cr640   1.985       .  S
O634       Cr640   2.002       .  S
O634        C635   1.265       .  A
C635        O636   1.261       .  A
O636       Cr641   1.986       .  S
O637       Cr641   1.996       .  S
O637        C638   1.261       .  A
C638        C660   1.466   1_655  S
Cr639       O642   1.779       .  S
Cr640       O642   1.778       .  S
Cr641       O642   1.783       .  S
O643       Cr661   1.989       .  S
O643        C651   1.262       .  A
O644       Cr661   1.987       .  S
O644        C645   1.259       .  A
C645        O646   1.262       .  A
C645       C1149   1.482       .  S
O646       Cr662   1.990       .  S
O647       Cr662   1.986       .  S
O647        C648   1.260       .  A
C648        O649   1.262       .  A
C648        C957   1.477       .  S
O649       Cr663   1.985       .  S
O650       Cr663   1.989       .  S
O650        C651   1.261       .  A
C651       C1500   1.477       .  S
O652       Cr661   1.989       .  S
O652        C660   1.264       .  A
O653       Cr661   2.003       .  S
O653        C654   1.266       .  A
C654        O655   1.261       .  A
O655       Cr662   1.985       .  S
O656       Cr662   1.993       .  S
O656        C657   1.261       .  A
C657        O658   1.261       .  A
C657        C745   1.462       .  S
O658       Cr663   1.984       .  S
O659       Cr663   1.990       .  S
O659        C660   1.261       .  A
Cr661       O664   1.778       .  S
Cr662       O664   1.782       .  S
Cr663       O664   1.780       .  S
O665       Cr683   1.984       .  S
O665        C673   1.260       .  A
O666       Cr683   1.983       .  S
O666        C667   1.260       .  A
C667        O668   1.265       .  A
C667        C816   1.478       .  S
O668       Cr684   1.998       .  S
O669       Cr684   1.984       .  S
O669        C670   1.259       .  A
C670        O671   1.262       .  A
C670        C756   1.479       .  S
O671       Cr685   1.989       .  S
O672       Cr685   1.991       .  S
O672        C673   1.262       .  A
C673        C777   1.479       .  S
O674       Cr683   1.985       .  S
O674        C682   1.263       .  A
O675       Cr683   1.991       .  S
O675        C676   1.263       .  A
C676        O677   1.262       .  A
C676        C701   1.471   1_655  S
O677       Cr684   1.994       .  S
O678       Cr684   2.002       .  S
O678        C679   1.267       .  A
C679        O680   1.262       .  A
O680       Cr685   1.990       .  S
O681       Cr685   1.991       .  S
O681        C682   1.262       .  A
C682        C720   1.460       .  S
Cr683       O686   1.776       .  S
Cr684       O686   1.776       .  S
Cr685       O686   1.778       .  S
O687       Cr705   1.992       .  S
O687        C695   1.260       .  A
O688       Cr705   1.983       .  S
O688        C689   1.261       .  A
C689        O690   1.261       .  A
C689       C1269   1.480       .  S
O690       Cr706   1.990       .  S
O691       Cr706   1.989       .  S
O691        C692   1.263       .  A
C692        O693   1.261       .  A
C692        C804   1.481       .  S
O693       Cr707   1.986       .  S
O694       Cr707   1.990       .  S
O694        C695   1.261       .  A
C695       C1320   1.485       .  S
O696       Cr705   1.997       .  S
O696        C704   1.266       .  A
O697       Cr705   1.987       .  S
O697        C698   1.264       .  A
C698        O699   1.262       .  A
O699       Cr706   1.990       .  S
O700       Cr706   1.994       .  S
O700        C701   1.261       .  A
C701        O702   1.263       .  A
O702       Cr707   1.991       .  S
O703       Cr707   1.995       .  S
O703        C704   1.264       .  A
C704        C748   1.474       .  S
Cr705       O708   1.776       .  S
Cr706       O708   1.782       .  S
Cr707       O708   1.777       .  S
O709       Cr727   1.985       .  S
O709        C717   1.260       .  A
O710       Cr727   1.993       .  S
O710        C711   1.262       .  A
C711        O712   1.260       .  A
C711        C792   1.482       .  S
O712       Cr728   1.988       .  S
O713       Cr728   1.980       .  S
O713        C714   1.260       .  A
C714        O715   1.265       .  A
C714        C828   1.474       .  S
O715       Cr729   1.994       .  S
O716       Cr729   1.990       .  S
O716        C717   1.260       .  A
C717       C1896   1.482       .  S
O718       Cr727   1.980       .  S
O718        C726   1.262       .  A
O719       Cr727   1.999       .  S
O719        C720   1.263       .  A
C720        O721   1.261       .  A
O721       Cr728   1.978       .  S
O722       Cr728   1.992       .  S
O722        C723   1.259       .  A
C723        O724   1.261       .  A
O724       Cr729   1.988       .  S
O725       Cr729   2.002       .  S
O725        C726   1.265       .  A
C726        C742   1.468   1_655  S
Cr727       O730   1.784       .  S
Cr728       O730   1.784       .  S
Cr729       O730   1.784       .  S
O731       Cr749   2.000       .  S
O731        C739   1.266       .  A
O732       Cr749   1.992       .  S
O732        C733   1.260       .  A
C733        O734   1.260       .  A
C733       C1884   1.478       .  S
O734       Cr750   1.978       .  S
O735       Cr750   1.994       .  S
O735        C736   1.262       .  A
C736        O737   1.260       .  A
C736        C948   1.482       .  S
O737       Cr751   1.987       .  S
O738       Cr751   1.976       .  S
O738        C739   1.259       .  A
C739       C1341   1.475       .  S
O740       Cr749   1.994       .  S
O740        C748   1.260       .  A
O741       Cr749   2.001       .  S
O741        C742   1.265       .  A
C742        O743   1.263       .  A
O743       Cr750   1.982       .  S
O744       Cr750   1.996       .  S
O744        C745   1.262       .  A
C745        O746   1.263       .  A
O746       Cr751   1.982       .  S
O747       Cr751   1.995       .  S
O747        C748   1.263       .  A
Cr749       O752   1.784       .  S
Cr750       O752   1.780       .  S
Cr751       O752   1.779       .  S
C753        C754   1.403       .  A
C753        C758   1.404       .  A
C754        C755   1.400       .  A
C754        H759   1.083       .  S
C755        C756   1.410       .  A
C755        O760   1.371       .  S
C756        C757   1.405       .  A
C757        C758   1.399       .  A
C757        H761   1.084       .  S
C758        O762   1.374       .  S
O760        H764   0.992       .  S
O762        H763   0.992       .  S
C765        C766   1.405       .  A
C765        C770   1.406       .  A
C766        C767   1.400       .  A
C766        H771   1.083       .  S
C767        C768   1.408       .  A
C767        O772   1.371       .  S
C768        C769   1.405       .  A
C769        C770   1.404       .  A
C769        H773   1.084       .  S
C770        O774   1.374       .  S
O772        H776   0.991       .  S
O774        H775   0.991       .  S
C777        C778   1.402       .  A
C777        C782   1.413       .  A
C778        C779   1.401       .  A
C778        H783   1.083       .  S
C779        C780   1.408       .  A
C779        O784   1.371       .  S
C780        C781   1.399       .  A
C781        C782   1.398       .  A
C781        H785   1.083       .  S
C782        O786   1.373       .  S
O784        H788   0.992       .  S
O786        H787   0.992       .  S
C789        C790   1.400       .  A
C789        C794   1.410       .  A
C790        C791   1.399       .  A
C790        H795   1.083       .  S
C791        C792   1.413       .  A
C791        O796   1.373       .  S
C792        C793   1.402       .  A
C793        C794   1.404       .  A
C793        H797   1.083       .  S
C794        O798   1.371       .  S
O796        H800   0.992       .  S
O798        H799   0.992       .  S
C801        C802   1.402       .  A
C801        C806   1.404       .  A
C802        C803   1.400       .  A
C802        H807   1.082       .  S
C803        C804   1.410       .  A
C803        O808   1.371       .  S
C804        C805   1.406       .  A
C805        C806   1.398       .  A
C805        H809   1.084       .  S
C806        O810   1.374       .  S
O808        H812   0.992       .  S
O810        H811   0.992       .  S
C813        C814   1.401       .  A
C813        C818   1.408       .  A
C814        C815   1.398       .  A
C814        H819   1.082       .  S
C815        C816   1.410       .  A
C815        O820   1.372       .  S
C816        C817   1.403       .  A
C817        C818   1.404       .  A
C817        H821   1.084       .  S
C818        O822   1.374       .  S
O820        H824   0.992       .  S
O822        H823   0.992       .  S
C825        C826   1.405       .  A
C825        C830   1.405       .  A
C826        C827   1.399       .  A
C826        H831   1.083       .  S
C827        C828   1.407       .  A
C827        O832   1.371       .  S
C828        C829   1.404       .  A
C829        C830   1.403       .  A
C829        H833   1.084       .  S
C830        O834   1.375       .  S
O832        H836   0.992       .  S
O834        H835   0.991       .  S
C837        C838   1.401       .  A
C837        C842   1.409       .  A
C838        C839   1.397       .  A
C838        H843   1.083       .  S
C839        C840   1.411       .  A
C839        O844   1.372       .  S
C840        C841   1.403       .  A
C841        C842   1.407       .  A
C841        H845   1.083       .  S
C842        O846   1.374       .  S
O844        H848   0.992       .  S
O846        H847   0.992       .  S
C849        C850   1.406       .  A
C849        C854   1.411       .  A
C850        C851   1.399       .  A
C850        H855   1.084       .  S
C851        C852   1.406       .  A
C851        O856   1.374       .  S
C852        C853   1.403       .  A
C853        C854   1.403       .  A
C853        H857   1.082       .  S
C854        O858   1.371       .  S
O856        H860   0.992       .  S
O858        H859   0.992       .  S
C861        C862   1.403       .  A
C861        C866   1.410       .  A
C862        C863   1.405       .  A
C862        H867   1.083       .  S
C863        C864   1.409       .  A
C863        O868   1.373       .  S
C864        C865   1.401       .  A
C865        C866   1.397       .  A
C865        H869   1.083       .  S
C866        O870   1.372       .  S
O868        H872   0.992       .  S
O870        H871   0.992       .  S
C873        C874   1.405       .  A
C873        C878   1.405       .  A
C874        C875   1.401       .  A
C874        H879   1.083       .  S
C875        C876   1.408       .  A
C875        O880   1.371       .  S
C876        C877   1.405       .  A
C877        C878   1.399       .  A
C877        H881   1.084       .  S
C878        O882   1.371       .  S
O880        H884   0.992       .  S
O882        H883   0.991       .  S
C885        C886   1.401       .  A
C885        C890   1.407       .  A
C886        C887   1.399       .  A
C886        H891   1.083       .  S
C887        C888   1.411       .  A
C887        O892   1.373       .  S
C888        C889   1.403       .  A
C889        C890   1.399       .  A
C889        H893   1.084       .  S
C890        O894   1.371       .  S
O892        H896   0.992       .  S
O894        H895   0.991       .  S
C897        C898   1.402       .  A
C897        C902   1.406       .  A
C898        C899   1.399       .  A
C898        H903   1.083       .  S
C899        C900   1.410       .  A
C899        O904   1.372       .  S
C900        C901   1.405       .  A
C901        C902   1.399       .  A
C901        H905   1.084       .  S
C902        O906   1.371       .  S
O904        H908   0.992       .  S
O906        H907   0.991       .  S
C909        C910   1.402       .  A
C909        C914   1.405       .  A
C910        C911   1.400       .  A
C910        H915   1.083       .  S
C911        C912   1.411       .  A
C911        O916   1.372       .  S
C912        C913   1.405       .  A
C913        C914   1.396       .  A
C913        H917   1.084       .  S
C914        O918   1.371       .  S
O916        H920   0.992       .  S
O918        H919   0.991       .  S
C921        C922   1.404       .  A
C921        C926   1.403       .  A
C922        C923   1.401       .  A
C922        H927   1.083       .  S
C923        C924   1.408       .  A
C923        O928   1.372       .  S
C924        C925   1.405       .  A
C925        C926   1.396       .  A
C925        H929   1.084       .  S
C926        O930   1.371       .  S
O928        H932   0.992       .  S
O930        H931   0.992       .  S
C933        C934   1.404       .  A
C933        C938   1.405       .  A
C934        C935   1.402       .  A
C934        H939   1.083       .  S
C935        C936   1.409       .  A
C935        O940   1.372       .  S
C936        C937   1.406       .  A
C937        C938   1.401       .  A
C937        H941   1.084       .  S
C938        O942   1.373       .  S
O940        H944   0.992       .  S
O942        H943   0.992       .  S
C945        C946   1.400       .  A
C945        C950   1.408       .  A
C946        C947   1.399       .  A
C946        H951   1.084       .  S
C947        C948   1.413       .  A
C947        O952   1.373       .  S
C948        C949   1.403       .  A
C949        C950   1.403       .  A
C949        H953   1.083       .  S
C950        O954   1.371       .  S
O952        H956   0.992       .  S
O954        H955   0.992       .  S
C957        C958   1.407       .  A
C957        C962   1.409       .  A
C958        C959   1.395       .  A
C958        H963   1.084       .  S
C959        C960   1.403       .  A
C959        O964   1.371       .  S
C960        C961   1.404       .  A
C961        C962   1.400       .  A
C961        H965   1.083       .  S
C962        O966   1.372       .  S
O964        H968   0.991       .  S
O966        H967   0.992       .  S
C969        C970   1.400       .  A
C969        C974   1.406       .  A
C970        C971   1.396       .  A
C970        H975   1.083       .  S
C971        C972   1.412       .  A
C971        O976   1.372       .  S
C972        C973   1.404       .  A
C973        C974   1.405       .  A
C973        H977   1.083       .  S
C974        O978   1.374       .  S
O976        H980   0.992       .  S
O978        H979   0.992       .  S
C981        C982   1.400       .  A
C981        C986   1.406       .  A
C982        C983   1.394       .  A
C982        H987   1.083       .  S
C983        C984   1.411       .  A
C983        O988   1.372       .  S
C984        C985   1.405       .  A
C985        C986   1.406       .  A
C985        H989   1.083       .  S
C986        O990   1.374       .  S
O988        H992   0.992       .  S
O990        H991   0.992       .  S
C993        C994   1.405       .  A
C993        C998   1.412       .  A
C994        C995   1.400       .  A
C994        H999   1.083       .  S
C995        C996   1.406       .  A
C995       O1000   1.370       .  S
C996        C997   1.399       .  A
C997        C998   1.396       .  A
C997       H1001   1.083       .  S
C998       O1002   1.373       .  S
O1000      H1004   0.991       .  S
O1002      H1003   0.992       .  S
C1005      C1006   1.403       .  A
C1005      C1010   1.410       .  A
C1006      C1007   1.398       .  A
C1006      H1011   1.084       .  S
C1007      C1008   1.406       .  A
C1007      O1012   1.371       .  S
C1008      C1009   1.403       .  A
C1009      C1010   1.400       .  A
C1009      H1013   1.083       .  S
C1010      O1014   1.372       .  S
O1012      H1016   0.992       .  S
O1014      H1015   0.992       .  S
C1017      C1018   1.404       .  A
C1017      C1022   1.412       .  A
C1018      C1019   1.401       .  A
C1018      H1023   1.083       .  S
C1019      C1020   1.407       .  A
C1019      O1024   1.370       .  S
C1020      C1021   1.400       .  A
C1021      C1022   1.399       .  A
C1021      H1025   1.083       .  S
C1022      O1026   1.373       .  S
O1024      H1028   0.991       .  S
O1026      H1027   0.992       .  S
C1029      C1030   1.404       .  A
C1029      C1034   1.409       .  A
C1030      C1031   1.401       .  A
C1030      H1035   1.084       .  S
C1031      C1032   1.407       .  A
C1031      O1036   1.370       .  S
C1032      C1033   1.402       .  A
C1033      C1034   1.397       .  A
C1033      H1037   1.084       .  S
C1034      O1038   1.371       .  S
O1036      H1040   0.992       .  S
O1038      H1039   0.991       .  S
C1041      C1042   1.403       .  A
C1041      C1046   1.414       .  A
C1042      C1043   1.403       .  A
C1042      H1047   1.083       .  S
C1043      C1044   1.408       .  A
C1043      O1048   1.371       .  S
C1044      C1045   1.401       .  A
C1045      C1046   1.399       .  A
C1045      H1049   1.083       .  S
C1046      O1050   1.373       .  S
O1048      H1052   0.992       .  S
O1050      H1051   0.992       .  S
C1053      C1054   1.405       .  A
C1053      C1058   1.411       .  A
C1054      C1055   1.398       .  A
C1054      H1059   1.084       .  S
C1055      C1056   1.405       .  A
C1055      O1060   1.374       .  S
C1056      C1057   1.402       .  A
C1057      C1058   1.400       .  A
C1057      H1061   1.083       .  S
C1058      O1062   1.371       .  S
O1060      H1064   0.992       .  S
O1062      H1063   0.992       .  S
C1065      C1066   1.399       .  A
C1065      C1070   1.410       .  A
C1066      C1067   1.397       .  A
C1066      H1071   1.083       .  S
C1067      C1068   1.412       .  A
C1067      O1072   1.372       .  S
C1068      C1069   1.404       .  A
C1069      C1070   1.403       .  A
C1069      H1073   1.083       .  S
C1070      O1074   1.371       .  S
O1072      H1076   0.992       .  S
O1074      H1075   0.991       .  S
C1077      C1078   1.405       .  A
C1077      C1082   1.412       .  A
C1078      C1079   1.406       .  A
C1078      H1083   1.083       .  S
C1079      C1080   1.405       .  A
C1079      O1084   1.375       .  S
C1080      C1081   1.399       .  A
C1081      C1082   1.396       .  A
C1081      H1085   1.083       .  S
C1082      O1086   1.373       .  S
O1084      H1088   0.991       .  S
O1086      H1087   0.992       .  S
C1089      C1090   1.400       .  A
C1089      C1094   1.407       .  A
C1090      C1091   1.398       .  A
C1090      H1095   1.083       .  S
C1091      C1092   1.411       .  A
C1091      O1096   1.373       .  S
C1092      C1093   1.403       .  A
C1093      C1094   1.400       .  A
C1093      H1097   1.083       .  S
C1094      O1098   1.371       .  S
O1096      H1100   0.992       .  S
O1098      H1099   0.991       .  S
C1101      C1102   1.404       .  A
C1101      C1106   1.411       .  A
C1102      C1103   1.406       .  A
C1102      H1107   1.083       .  S
C1103      C1104   1.407       .  A
C1103      O1108   1.373       .  S
C1104      C1105   1.402       .  A
C1105      C1106   1.398       .  A
C1105      H1109   1.084       .  S
C1106      O1110   1.372       .  S
O1108      H1112   0.992       .  S
O1110      H1111   0.992       .  S
C1113      C1114   1.404       .  A
C1113      C1118   1.404       .  A
C1114      C1115   1.403       .  A
C1114      H1119   1.083       .  S
C1115      C1116   1.410       .  A
C1115      O1120   1.371       .  S
C1116      C1117   1.407       .  A
C1117      C1118   1.395       .  A
C1117      H1121   1.084       .  S
C1118      O1122   1.371       .  S
O1120      H1124   0.992       .  S
O1122      H1123   0.991       .  S
C1125      C1126   1.407       .  A
C1125      C1130   1.410       .  A
C1126      C1127   1.395       .  A
C1126      H1131   1.084       .  S
C1127      C1128   1.403       .  A
C1127      O1132   1.371       .  S
C1128      C1129   1.404       .  A
C1129      C1130   1.403       .  A
C1129      H1133   1.083       .  S
C1130      O1134   1.371       .  S
O1132      H1136   0.991       .  S
O1134      H1135   0.992       .  S
C1137      C1138   1.401       .  A
C1137      C1142   1.408       .  A
C1138      C1139   1.398       .  A
C1138      H1143   1.083       .  S
C1139      C1140   1.411       .  A
C1139      O1144   1.372       .  S
C1140      C1141   1.403       .  A
C1141      C1142   1.399       .  A
C1141      H1145   1.084       .  S
C1142      O1146   1.371       .  S
O1144      H1148   0.992       .  S
O1146      H1147   0.991       .  S
C1149      C1150   1.406       .  A
C1149      C1154   1.411       .  A
C1150      C1151   1.399       .  A
C1150      H1155   1.084       .  S
C1151      C1152   1.405       .  A
C1151      O1156   1.374       .  S
C1152      C1153   1.402       .  A
C1153      C1154   1.401       .  A
C1153      H1157   1.083       .  S
C1154      O1158   1.371       .  S
O1156      H1160   0.992       .  S
O1158      H1159   0.992       .  S
C1161      C1162   1.400       .  A
C1161      C1166   1.407       .  A
C1162      C1163   1.396       .  A
C1162      H1167   1.084       .  S
C1163      C1164   1.413       .  A
C1163      O1168   1.372       .  S
C1164      C1165   1.404       .  A
C1165      C1166   1.405       .  A
C1165      H1169   1.083       .  S
C1166      O1170   1.373       .  S
O1168      H1172   0.992       .  S
O1170      H1171   0.992       .  S
C1173      C1174   1.405       .  A
C1173      C1178   1.404       .  A
C1174      C1175   1.404       .  A
C1174      H1179   1.083       .  S
C1175      C1176   1.410       .  A
C1175      O1180   1.371       .  S
C1176      C1177   1.407       .  A
C1177      C1178   1.396       .  A
C1177      H1181   1.084       .  S
C1178      O1182   1.371       .  S
O1180      H1184   0.992       .  S
O1182      H1183   0.991       .  S
C1185      C1186   1.403       .  A
C1185      C1190   1.406       .  A
C1186      C1187   1.401       .  A
C1186      H1191   1.082       .  S
C1187      C1188   1.410       .  A
C1187      O1192   1.372       .  S
C1188      C1189   1.406       .  A
C1189      C1190   1.400       .  A
C1189      H1193   1.084       .  S
C1190      O1194   1.371       .  S
O1192      H1196   0.992       .  S
O1194      H1195   0.991       .  S
C1197      C1198   1.404       .  A
C1197      C1202   1.406       .  A
C1198      C1199   1.399       .  A
C1198      H1203   1.083       .  S
C1199      C1200   1.408       .  A
C1199      O1204   1.372       .  S
C1200      C1201   1.405       .  A
C1201      C1202   1.400       .  A
C1201      H1205   1.084       .  S
C1202      O1206   1.371       .  S
O1204      H1208   0.992       .  S
O1206      H1207   0.991       .  S
C1209      C1210   1.402       .  A
C1209      C1214   1.403       .  A
C1210      C1211   1.402       .  A
C1210      H1215   1.083       .  S
C1211      C1212   1.411       .  A
C1211      O1216   1.371       .  S
C1212      C1213   1.407       .  A
C1213      C1214   1.393       .  A
C1213      H1217   1.084       .  S
C1214      O1218   1.372       .  S
O1216      H1220   0.992       .  S
O1218      H1219   0.991       .  S
C1221      C1222   1.403       .  A
C1221      C1226   1.408       .  A
C1222      C1223   1.403       .  A
C1222      H1227   1.084       .  S
C1223      C1224   1.409       .  A
C1223      O1228   1.374       .  S
C1224      C1225   1.403       .  A
C1225      C1226   1.401       .  A
C1225      H1229   1.083       .  S
C1226      O1230   1.372       .  S
O1228      H1232   0.992   1_565  S
O1230      H1231   0.992       .  S
C1233      C1234   1.404       .  A
C1233      C1238   1.405       .  A
C1234      C1235   1.401       .  A
C1234      H1239   1.083       .  S
C1235      C1236   1.410       .  A
C1235      O1240   1.371       .  S
C1236      C1237   1.405       .  A
C1237      C1238   1.401       .  A
C1237      H1241   1.084       .  S
C1238      O1242   1.375       .  S
O1240      H1244   0.992       .  S
O1242      H1243   0.992       .  S
C1245      C1246   1.406       .  A
C1245      C1250   1.408       .  A
C1246      C1247   1.405       .  A
C1246      H1251   1.084       .  S
C1247      C1248   1.405       .  A
C1247      O1252   1.375       .  S
C1248      C1249   1.405       .  A
C1249      C1250   1.400       .  A
C1249      H1253   1.083       .  S
C1250      O1254   1.371       .  S
O1252      H1256   0.992       .  S
O1254      H1255   0.992       .  S
C1257      C1258   1.403       .  A
C1257      C1262   1.404       .  A
C1258      C1259   1.402       .  A
C1258      H1263   1.083       .  S
C1259      C1260   1.411       .  A
C1259      O1264   1.371       .  S
C1260      C1261   1.407       .  A
C1261      C1262   1.395       .  A
C1261      H1265   1.084       .  S
C1262      O1266   1.371       .  S
O1264      H1268   0.992       .  S
O1266      H1267   0.991       .  S
C1269      C1270   1.406       .  A
C1269      C1274   1.409       .  A
C1270      C1271   1.398       .  A
C1270      H1275   1.084       .  S
C1271      C1272   1.404       .  A
C1271      O1276   1.374       .  S
C1272      C1273   1.404       .  A
C1273      C1274   1.401       .  A
C1273      H1277   1.082       .  S
C1274      O1278   1.371       .  S
O1276      H1280   0.992       .  S
O1278      H1279   0.992       .  S
C1281      C1282   1.403       .  A
C1281      C1286   1.406       .  A
C1282      C1283   1.399       .  A
C1282      H1287   1.083       .  S
C1283      C1284   1.409       .  A
C1283      O1288   1.372       .  S
C1284      C1285   1.402       .  A
C1285      C1286   1.398       .  A
C1285      H1289   1.084       .  S
C1286      O1290   1.370       .  S
O1288      H1292   0.992       .  S
O1290      H1291   0.992       .  S
C1293      C1294   1.405       .  A
C1293      C1298   1.405       .  A
C1294      C1295   1.404       .  A
C1294      H1299   1.083       .  S
C1295      C1296   1.409       .  A
C1295      O1300   1.372       .  S
C1296      C1297   1.405       .  A
C1297      C1298   1.396       .  A
C1297      H1301   1.084       .  S
C1298      O1302   1.372       .  S
O1300      H1304   0.992       .  S
O1302      H1303   0.992       .  S
C1305      C1306   1.404       .  A
C1305      C1310   1.404       .  A
C1306      C1307   1.401       .  A
C1306      H1311   1.082       .  S
C1307      C1308   1.409       .  A
C1307      O1312   1.372       .  S
C1308      C1309   1.405       .  A
C1309      C1310   1.397       .  A
C1309      H1313   1.084       .  S
C1310      O1314   1.371       .  S
O1312      H1316   0.992       .  S
O1314      H1315   0.991       .  S
C1317      C1318   1.405       .  A
C1317      C1322   1.405       .  A
C1318      C1319   1.402       .  A
C1318      H1323   1.083       .  S
C1319      C1320   1.410       .  A
C1319      O1324   1.371       .  S
C1320      C1321   1.407       .  A
C1321      C1322   1.401       .  A
C1321      H1325   1.084       .  S
C1322      O1326   1.374       .  S
O1324      H1328   0.992       .  S
O1326      H1327   0.992       .  S
C1329      C1330   1.406       .  A
C1329      C1334   1.406       .  A
C1330      C1331   1.404       .  A
C1330      H1335   1.083       .  S
C1331      C1332   1.409       .  A
C1331      O1336   1.372       .  S
C1332      C1333   1.404       .  A
C1333      C1334   1.399       .  A
C1333      H1337   1.084       .  S
C1334      O1338   1.372       .  S
O1336      H1340   0.992       .  S
O1338      H1339   0.992       .  S
C1341      C1342   1.402       .  A
C1341      C1346   1.409       .  A
C1342      C1343   1.399       .  A
C1342      H1347   1.084       .  S
C1343      C1344   1.406       .  A
C1343      O1348   1.370       .  S
C1344      C1345   1.404       .  A
C1345      C1346   1.400       .  A
C1345      H1349   1.083       .  S
C1346      O1350   1.372       .  S
O1348      H1352   0.992       .  S
O1350      H1351   0.992       .  S
C1353      C1354   1.399       .  A
C1353      C1358   1.407       .  A
C1354      C1355   1.397       .  A
C1354      H1359   1.084       .  S
C1355      C1356   1.414       .  A
C1355      O1360   1.373       .  S
C1356      C1357   1.403       .  A
C1357      C1358   1.401       .  A
C1357      H1361   1.083       .  S
C1358      O1362   1.371       .  S
O1360      H1364   0.992       .  S
O1362      H1363   0.992       .  S
C1365      C1366   1.406       .  A
C1365      C1370   1.409       .  A
C1366      C1367   1.398       .  A
C1366      H1371   1.084       .  S
C1367      C1368   1.405       .  A
C1367      O1372   1.372       .  S
C1368      C1369   1.406       .  A
C1369      C1370   1.405       .  A
C1369      H1373   1.083       .  S
C1370      O1374   1.372       .  S
O1372      H1376   0.992       .  S
O1374      H1375   0.992       .  S
C1377      C1378   1.404       .  A
C1377      C1382   1.410       .  A
C1378      C1379   1.401       .  A
C1378      H1383   1.084       .  S
C1379      C1380   1.407       .  A
C1379      O1384   1.371       .  S
C1380      C1381   1.404       .  A
C1381      C1382   1.402       .  A
C1381      H1385   1.083       .  S
C1382      O1386   1.372       .  S
O1384      H1388   0.992       .  S
O1386      H1387   0.992       .  S
C1389      C1390   1.404       .  A
C1389      C1394   1.405       .  A
C1390      C1391   1.403       .  A
C1390      H1395   1.083       .  S
C1391      C1392   1.410       .  A
C1391      O1396   1.372       .  S
C1392      C1393   1.405       .  A
C1393      C1394   1.397       .  A
C1393      H1397   1.084       .  S
C1394      O1398   1.372       .  S
O1396      H1400   0.992       .  S
O1398      H1399   0.992       .  S
C1401      C1402   1.404       .  A
C1401      C1406   1.404       .  A
C1402      C1403   1.402       .  A
C1402      H1407   1.083       .  S
C1403      C1404   1.409       .  A
C1403      O1408   1.372       .  S
C1404      C1405   1.405       .  A
C1405      C1406   1.397       .  A
C1405      H1409   1.084       .  S
C1406      O1410   1.371       .  S
O1408      H1412   0.992       .  S
O1410      H1411   0.991       .  S
C1413      C1414   1.400       .  A
C1413      C1418   1.409       .  A
C1414      C1415   1.398       .  A
C1414      H1419   1.083       .  S
C1415      C1416   1.411       .  A
C1415      O1420   1.372       .  S
C1416      C1417   1.402       .  A
C1417      C1418   1.402       .  A
C1417      H1421   1.084       .  S
C1418      O1422   1.371       .  S
O1420      H1424   0.992       .  S
O1422      H1423   0.991       .  S
C1425      C1426   1.404       .  A
C1425      C1430   1.405       .  A
C1426      C1427   1.404       .  A
C1426      H1431   1.083       .  S
C1427      C1428   1.411       .  A
C1427      O1432   1.371       .  S
C1428      C1429   1.406       .  A
C1429      C1430   1.400       .  A
C1429      H1433   1.084       .  S
C1430      O1434   1.374       .  S
O1432      H1436   0.992       .  S
O1434      H1435   0.992       .  S
C1437      C1438   1.404       .  A
C1437      C1442   1.406       .  A
C1438      C1439   1.398       .  A
C1438      H1443   1.083       .  S
C1439      C1440   1.408       .  A
C1439      O1444   1.371       .  S
C1440      C1441   1.405       .  A
C1441      C1442   1.405       .  A
C1441      H1445   1.084       .  S
C1442      O1446   1.375       .  S
O1444      H1448   0.991       .  S
O1446      H1447   0.991       .  S
C1449      C1450   1.405       .  A
C1449      C1454   1.410       .  A
C1450      C1451   1.397       .  A
C1450      H1455   1.084       .  S
C1451      C1452   1.405       .  A
C1451      O1456   1.371       .  S
C1452      C1453   1.403       .  A
C1453      C1454   1.402       .  A
C1453      H1457   1.083       .  S
C1454      O1458   1.372       .  S
O1456      H1460   0.991       .  S
O1458      H1459   0.992       .  S
C1461      C1462   1.403       .  A
C1461      C1466   1.410       .  A
C1462      C1463   1.399       .  A
C1462      H1467   1.084       .  S
C1463      C1464   1.408       .  A
C1463      O1468   1.371       .  S
C1464      C1465   1.400       .  A
C1465      C1466   1.397       .  A
C1465      H1469   1.083       .  S
C1466      O1470   1.372       .  S
O1468      H1472   0.992       .  S
O1470      H1471   0.992       .  S
C1473      C1474   1.399       .  A
C1473      C1478   1.407       .  A
C1474      C1475   1.396       .  A
C1474      H1479   1.084       .  S
C1475      C1476   1.414       .  A
C1475      O1480   1.373       .  S
C1476      C1477   1.405       .  A
C1477      C1478   1.404       .  A
C1477      H1481   1.083       .  S
C1478      O1482   1.370       .  S
O1480      H1484   0.993       .  S
O1482      H1483   0.991       .  S
C1485      C1486   1.404       .  A
C1485      C1490   1.404       .  A
C1486      C1487   1.404       .  A
C1486      H1491   1.083       .  S
C1487      C1488   1.410       .  A
C1487      O1492   1.371       .  S
C1488      C1489   1.406       .  A
C1489      C1490   1.395       .  A
C1489      H1493   1.084       .  S
C1490      O1494   1.371       .  S
O1492      H1496   0.992       .  S
O1494      H1495   0.991       .  S
C1497      C1498   1.400       .  A
C1497      C1502   1.409       .  A
C1498      C1499   1.399       .  A
C1498      H1503   1.083       .  S
C1499      C1500   1.411       .  A
C1499      O1504   1.371       .  S
C1500      C1501   1.402       .  A
C1501      C1502   1.401       .  A
C1501      H1505   1.084       .  S
C1502      O1506   1.372       .  S
O1504      H1508   0.992       .  S
O1506      H1507   0.991       .  S
C1509      C1510   1.399       .  A
C1509      C1514   1.409       .  A
C1510      C1511   1.396       .  A
C1510      H1515   1.083       .  S
C1511      C1512   1.410       .  A
C1511      O1516   1.372       .  S
C1512      C1513   1.401       .  A
C1513      C1514   1.402       .  A
C1513      H1517   1.084       .  S
C1514      O1518   1.373       .  S
O1516      H1520   0.992       .  S
O1518      H1519   0.992       .  S
C1521      C1522   1.404       .  A
C1521      C1526   1.405       .  A
C1522      C1523   1.400       .  A
C1522      H1527   1.083       .  S
C1523      C1524   1.410       .  A
C1523      O1528   1.371       .  S
C1524      C1525   1.406       .  A
C1525      C1526   1.398       .  A
C1525      H1529   1.084       .  S
C1526      O1530   1.371       .  S
O1528      H1532   0.992       .  S
O1530      H1531   0.991       .  S
C1533      C1534   1.406       .  A
C1533      C1538   1.410       .  A
C1534      C1535   1.398       .  A
C1534      H1539   1.084       .  S
C1535      C1536   1.405       .  A
C1535      O1540   1.371       .  S
C1536      C1537   1.404       .  A
C1537      C1538   1.402       .  A
C1537      H1541   1.083       .  S
C1538      O1542   1.372       .  S
O1540      H1544   0.991       .  S
O1542      H1543   0.992       .  S
C1545      C1546   1.404       .  A
C1545      C1550   1.405       .  A
C1546      C1547   1.401       .  A
C1546      H1551   1.083       .  S
C1547      C1548   1.409       .  A
C1547      O1552   1.371       .  S
C1548      C1549   1.406       .  A
C1549      C1550   1.398       .  A
C1549      H1553   1.084       .  S
C1550      O1554   1.371       .  S
O1552      H1556   0.992       .  S
O1554      H1555   0.991       .  S
C1557      C1558   1.404       .  A
C1557      C1562   1.405       .  A
C1558      C1559   1.401       .  A
C1558      H1563   1.083       .  S
C1559      C1560   1.410       .  A
C1559      O1564   1.371       .  S
C1560      C1561   1.406       .  A
C1561      C1562   1.398       .  A
C1561      H1565   1.084       .  S
C1562      O1566   1.371       .  S
O1564      H1568   0.992       .  S
O1566      H1567   0.991       .  S
C1569      C1570   1.404       .  A
C1569      C1574   1.404       .  A
C1570      C1571   1.401       .  A
C1570      H1575   1.083       .  S
C1571      C1572   1.409       .  A
C1571      O1576   1.371       .  S
C1572      C1573   1.406       .  A
C1573      C1574   1.399       .  A
C1573      H1577   1.084       .  S
C1574      O1578   1.374       .  S
O1576      H1580   0.992       .  S
O1578      H1579   0.992       .  S
C1581      C1582   1.405       .  A
C1581      C1586   1.404       .  A
C1582      C1583   1.404       .  A
C1582      H1587   1.083       .  S
C1583      C1584   1.409       .  A
C1583      O1588   1.371       .  S
C1584      C1585   1.406       .  A
C1585      C1586   1.396       .  A
C1585      H1589   1.084       .  S
C1586      O1590   1.372       .  S
O1588      H1592   0.992       .  S
O1590      H1591   0.992       .  S
C1593      C1594   1.405       .  A
C1593      C1598   1.404       .  A
C1594      C1595   1.404       .  A
C1594      H1599   1.083       .  S
C1595      C1596   1.410       .  A
C1595      O1600   1.371       .  S
C1596      C1597   1.408       .  A
C1597      C1598   1.395       .  A
C1597      H1601   1.084       .  S
C1598      O1602   1.371       .  S
O1600      H1604   0.992       .  S
O1602      H1603   0.991       .  S
C1605      C1606   1.398       .  A
C1605      C1610   1.408       .  A
C1606      C1607   1.396       .  A
C1606      H1611   1.084       .  S
C1607      C1608   1.415       .  A
C1607      O1612   1.373       .  S
C1608      C1609   1.403       .  A
C1609      C1610   1.403       .  A
C1609      H1613   1.083       .  S
C1610      O1614   1.370       .  S
O1612      H1616   0.993       .  S
O1614      H1615   0.992       .  S
C1617      C1618   1.400       .  A
C1617      C1622   1.408       .  A
C1618      C1619   1.400       .  A
C1618      H1623   1.083       .  S
C1619      C1620   1.411       .  A
C1619      O1624   1.373       .  S
C1620      C1621   1.402       .  A
C1621      C1622   1.401       .  A
C1621      H1625   1.084       .  S
C1622      O1626   1.371       .  S
O1624      H1628   0.992       .  S
O1626      H1627   0.991       .  S
C1629      C1630   1.402       .  A
C1629      C1634   1.411       .  A
C1630      C1631   1.403       .  A
C1630      H1635   1.084       .  S
C1631      C1632   1.408       .  A
C1631      O1636   1.373       .  S
C1632      C1633   1.400       .  A
C1633      C1634   1.397       .  A
C1633      H1637   1.083       .  S
C1634      O1638   1.372       .  S
O1636      H1640   0.992       .  S
O1638      H1639   0.992       .  S
C1641      C1642   1.403       .  A
C1641      C1646   1.411       .  A
C1642      C1643   1.401       .  A
C1642      H1647   1.083       .  S
C1643      C1644   1.408       .  A
C1643      O1648   1.371       .  S
C1644      C1645   1.400       .  A
C1645      C1646   1.399       .  A
C1645      H1649   1.083       .  S
C1646      O1650   1.373       .  S
O1648      H1652   0.991       .  S
O1650      H1651   0.992       .  S
C1653      C1654   1.403       .  A
C1653      C1658   1.412       .  A
C1654      C1655   1.402       .  A
C1654      H1659   1.083       .  S
C1655      C1656   1.408       .  A
C1655      O1660   1.371       .  S
C1656      C1657   1.400       .  A
C1657      C1658   1.397       .  A
C1657      H1661   1.083       .  S
C1658      O1662   1.372       .  S
O1660      H1664   0.991       .  S
O1662      H1663   0.992       .  S
C1665      C1666   1.402       .  A
C1665      C1670   1.406       .  A
C1666      C1667   1.398       .  A
C1666      H1671   1.084       .  S
C1667      C1668   1.410       .  A
C1667      O1672   1.372       .  S
C1668      C1669   1.405       .  A
C1669      C1670   1.399       .  A
C1669      H1673   1.084       .  S
C1670      O1674   1.371       .  S
O1672      H1676   0.992       .  S
O1674      H1675   0.991       .  S
C1677      C1678   1.402       .  A
C1677      C1682   1.405       .  A
C1678      C1679   1.401       .  A
C1678      H1683   1.083       .  S
C1679      C1680   1.411       .  A
C1679      O1684   1.372       .  S
C1680      C1681   1.406       .  A
C1681      C1682   1.397       .  A
C1681      H1685   1.084       .  S
C1682      O1686   1.371       .  S
O1684      H1688   0.992       .  S
O1686      H1687   0.991       .  S
C1689      C1690   1.400       .  A
C1689      C1694   1.406       .  A
C1690      C1691   1.397       .  A
C1690      H1695   1.083       .  S
C1691      C1692   1.413       .  A
C1691      O1696   1.373       .  S
C1692      C1693   1.406       .  A
C1693      C1694   1.401       .  A
C1693      H1697   1.083       .  S
C1694      O1698   1.370       .  S
O1696      H1700   0.992       .  S
O1698      H1699   0.991       .  S
C1701      C1702   1.400       .  A
C1701      C1706   1.407       .  A
C1702      C1703   1.398       .  A
C1702      H1707   1.083       .  S
C1703      C1704   1.412       .  A
C1703      O1708   1.373       .  S
C1704      C1705   1.404       .  A
C1705      C1706   1.400       .  A
C1705      H1709   1.083       .  S
C1706      O1710   1.370       .  S
O1708      H1712   0.992       .  S
O1710      H1711   0.991       .  S
C1713      C1714   1.404       .  A
C1713      C1718   1.404       .  A
C1714      C1715   1.399       .  A
C1714      H1719   1.083       .  S
C1715      C1716   1.407       .  A
C1715      O1720   1.372       .  S
C1716      C1717   1.405       .  A
C1717      C1718   1.398       .  A
C1717      H1721   1.084       .  S
C1718      O1722   1.371       .  S
O1720      H1724   0.992       .  S
O1722      H1723   0.991       .  S
C1725      C1726   1.404       .  A
C1725      C1730   1.404       .  A
C1726      C1727   1.400       .  A
C1726      H1731   1.083       .  S
C1727      C1728   1.408       .  A
C1727      O1732   1.372       .  S
C1728      C1729   1.405       .  A
C1729      C1730   1.400       .  A
C1729      H1733   1.084       .  S
C1730      O1734   1.371       .  S
O1732      H1736   0.992       .  S
O1734      H1735   0.992       .  S
C1737      C1738   1.407       .  A
C1737      C1742   1.410       .  A
C1738      C1739   1.398       .  A
C1738      H1743   1.084       .  S
C1739      C1740   1.405       .  A
C1739      O1744   1.371       .  S
C1740      C1741   1.402       .  A
C1741      C1742   1.400       .  A
C1741      H1745   1.083       .  S
C1742      O1746   1.372       .  S
O1744      H1748   0.991       .  S
O1746      H1747   0.992       .  S
C1749      C1750   1.401       .  A
C1749      C1754   1.406       .  A
C1750      C1751   1.397       .  A
C1750      H1755   1.083       .  S
C1751      C1752   1.411       .  A
C1751      O1756   1.373       .  S
C1752      C1753   1.406       .  A
C1753      C1754   1.401       .  A
C1753      H1757   1.083       .  S
C1754      O1758   1.371       .  S
O1756      H1760   0.992       .  S
O1758      H1759   0.992       .  S
C1761      C1762   1.398       .  A
C1761      C1766   1.409       .  A
C1762      C1763   1.396       .  A
C1762      H1767   1.083       .  S
C1763      C1764   1.414       .  A
C1763      O1768   1.372       .  S
C1764      C1765   1.403       .  A
C1765      C1766   1.404       .  A
C1765      H1769   1.083       .  S
C1766      O1770   1.370       .  S
O1768      H1772   0.991       .  S
O1770      H1771   0.991       .  S
C1773      C1774   1.399       .  A
C1773      C1778   1.408       .  A
C1774      C1775   1.395       .  A
C1774      H1779   1.083       .  S
C1775      C1776   1.413       .  A
C1775      O1780   1.372       .  S
C1776      C1777   1.404       .  A
C1777      C1778   1.405       .  A
C1777      H1781   1.083       .  S
C1778      O1782   1.373       .  S
O1780      H1784   0.992       .  S
O1782      H1783   0.992       .  S
C1785      C1786   1.404       .  A
C1785      C1790   1.404       .  A
C1786      C1787   1.403       .  A
C1786      H1791   1.083       .  S
C1787      C1788   1.409       .  A
C1787      O1792   1.371       .  S
C1788      C1789   1.406       .  A
C1789      C1790   1.397       .  A
C1789      H1793   1.084       .  S
C1790      O1794   1.374       .  S
O1792      H1796   0.992       .  S
O1794      H1795   0.992       .  S
C1797      C1798   1.404       .  A
C1797      C1802   1.404       .  A
C1798      C1799   1.403       .  A
C1798      H1803   1.083       .  S
C1799      C1800   1.409       .  A
C1799      O1804   1.371       .  S
C1800      C1801   1.406       .  A
C1801      C1802   1.398       .  A
C1801      H1805   1.084       .  S
C1802      O1806   1.374       .  S
O1804      H1808   0.992       .  S
O1806      H1807   0.992       .  S
C1809      C1810   1.401       .  A
C1809      C1814   1.406       .  A
C1810      C1811   1.397       .  A
C1810      H1815   1.083       .  S
C1811      C1812   1.413       .  A
C1811      O1816   1.373       .  S
C1812      C1813   1.407       .  A
C1813      C1814   1.402       .  A
C1813      H1817   1.083       .  S
C1814      O1818   1.370       .  S
O1816      H1820   0.992       .  S
O1818      H1819   0.992       .  S
C1821      C1822   1.401       .  A
C1821      C1826   1.406       .  A
C1822      C1823   1.399       .  A
C1822      H1827   1.084       .  S
C1823      C1824   1.411       .  A
C1823      O1828   1.373       .  S
C1824      C1825   1.403       .  A
C1825      C1826   1.399       .  A
C1825      H1829   1.084       .  S
C1826      O1830   1.371       .  S
O1828      H1832   0.992       .  S
O1830      H1831   0.991       .  S
C1833      C1834   1.401       .  A
C1833      C1838   1.406       .  A
C1834      C1835   1.398       .  A
C1834      H1839   1.082       .  S
C1835      C1836   1.410       .  A
C1835      O1840   1.371       .  S
C1836      C1837   1.405       .  A
C1837      C1838   1.400       .  A
C1837      H1841   1.084       .  S
C1838      O1842   1.371       .  S
O1840      H1844   0.991       .  S
O1842      H1843   0.992       .  S
C1845      C1846   1.406       .  A
C1845      C1850   1.414       .  A
C1846      C1847   1.404       .  A
C1846      H1851   1.083       .  S
C1847      C1848   1.405       .  A
C1847      O1852   1.372       .  S
C1848      C1849   1.400       .  A
C1849      C1850   1.397       .  A
C1849      H1853   1.083       .  S
C1850      O1854   1.373       .  S
O1852      H1856   0.992       .  S
O1854      H1855   0.992       .  S
C1857      C1858   1.399       .  A
C1857      C1862   1.409       .  A
C1858      C1859   1.396       .  A
C1858      H1863   1.084       .  S
C1859      C1860   1.417       .  A
C1859      O1864   1.373       .  S
C1860      C1861   1.403       .  A
C1861      C1862   1.408       .  A
C1861      H1865   1.083       .  S
C1862      O1866   1.373       .  S
O1864      H1868   0.993       .  S
O1866      H1867   0.991       .  S
C1869      C1870   1.406       .  A
C1869      C1874   1.403       .  A
C1870      C1871   1.403       .  A
C1870      H1875   1.082       .  S
C1871      C1872   1.408       .  A
C1871      O1876   1.371       .  S
C1872      C1873   1.407       .  A
C1873      C1874   1.400       .  A
C1873      H1877   1.084       .  S
C1874      O1878   1.374       .  S
O1876      H1880   0.992       .  S
O1878      H1879   0.992       .  S
C1881      C1882   1.406       .  A
C1881      C1886   1.405       .  A
C1882      C1883   1.403       .  A
C1882      H1887   1.083       .  S
C1883      C1884   1.408       .  A
C1883      O1888   1.371       .  S
C1884      C1885   1.404       .  A
C1885      C1886   1.396       .  A
C1885      H1889   1.084       .  S
C1886      O1890   1.372       .  S
O1888      H1892   0.991       .  S
O1890      H1891   0.992       .  S
C1893      C1894   1.405       .  A
C1893      C1898   1.405       .  A
C1894      C1895   1.403       .  A
C1894      H1899   1.083       .  S
C1895      C1896   1.410       .  A
C1895      O1900   1.372       .  S
C1896      C1897   1.406       .  A
C1897      C1898   1.399       .  A
C1897      H1901   1.084       .  S
C1898      O1902   1.371       .  S
O1900      H1904   0.992       .  S
O1902      H1903   0.992       .  S
