geometry optimzed in LAMMPS
_audit_creation_date              2020-11-30 
_audit_creation_method            'lammps2cif' 
_symmetry_space_group_name_H-M    'P1' 
_symmetry_Int_Tables_number       1 
_symmetry_cell_setting            triclinic 
loop_ 
_symmetry_equiv_pos_as_xyz 
  x,y,z 
_cell_length_a                    29.375794126188282 
_cell_length_b                    31.51634158930029 
_cell_length_c                    31.196494139622757 
_cell_angle_alpha                 89.7456042243793 
_cell_angle_beta                  89.2822435637245 
_cell_angle_gamma                 89.85378095964484 
loop_ 
_atom_site_label 
_atom_site_type_symbol 
_atom_site_fract_x 
_atom_site_fract_y 
_atom_site_fract_z 
_atom_site_charge 
N1          N  0.19696922  0.33030870  0.20455381    -0.07000
N2          N  0.19001762  0.36000432  0.17561263    -0.59120
N3          N  0.16298329  0.29895609  0.30209243    -0.06680
N4          N  0.13132426  0.30758094  0.33140578    -0.61250
N5          N  0.19487248  0.32826048  0.30226500    -0.06280
N6          N  0.18545407  0.35727003  0.33141707    -0.59100
N7          N  0.16459274  0.30176949  0.20369992    -0.05960
N8          N  0.13475191  0.31242891  0.17423508    -0.61600
C9          C  0.15101605  0.34893175  0.15640937     0.95170
C10         C  0.14603050  0.34391878  0.34976482     0.94950
N11         N  0.19892890  0.17038811  0.29983090    -0.07190
N12         N  0.19389634  0.14276611  0.33133054    -0.59700
N13         N  0.16567571  0.19960175  0.20084106    -0.05310
N14         N  0.13516796  0.18969862  0.17150812    -0.60950
N15         N  0.19926477  0.17186433  0.20009521    -0.07220
N16         N  0.19259508  0.14338005  0.16987692    -0.59970
N17         N  0.16540644  0.19805064  0.30037293    -0.04950
N18         N  0.13663811  0.18906388  0.33209870    -0.61040
Mn19       Mn  0.16283720  0.24942259  0.25163195     1.18440
C20         C  0.15503511  0.15451828  0.35166900     0.97250
C21         C  0.15245759  0.15450559  0.15204766     0.97920
N22         N  0.30262433  0.32953619  0.30081133    -0.07240
N23         N  0.31194075  0.35943433  0.32859447    -0.63550
N24         N  0.33458769  0.30107227  0.20200180    -0.06040
N25         N  0.36432419  0.30901012  0.17099949    -0.64220
N26         N  0.30278240  0.33043236  0.20314784    -0.06750
N27         N  0.31049562  0.35922512  0.17320550    -0.63810
N28         N  0.33555380  0.30141022  0.29957770    -0.05640
N29         N  0.36793208  0.31209782  0.32625292    -0.64500
Mn30       Mn  0.24926394  0.33055391  0.25295109     1.10660
C31         C  0.35285952  0.34841748  0.34454587     0.98480
C32         C  0.34878028  0.34532278  0.15314154     0.98550
N33         N  0.30670157  0.17308874  0.20151098    -0.06750
N34         N  0.31650912  0.14468352  0.17201599    -0.62130
N35         N  0.33709480  0.20105168  0.30010860    -0.06070
N36         N  0.36801268  0.19196650  0.32928146    -0.58860
N37         N  0.30578193  0.17132820  0.29916642    -0.07380
N38         N  0.31480571  0.14144681  0.32747959    -0.61690
N39         N  0.33817865  0.20258777  0.20219136    -0.06370
N40         N  0.37008622  0.19514902  0.17303071    -0.58880
Mn41       Mn  0.25243258  0.17061876  0.25004207     1.20190
Mn42       Mn  0.33748496  0.25157843  0.25114689     1.10090
Cl43       Cl  0.25025785  0.25050740  0.25161158    -0.86850
C44         C  0.35581277  0.15909362  0.15438799     0.95480
C45         C  0.35335204  0.15478943  0.34644729     0.95280
C46         C  0.44846536  0.45706456  0.46957092    -0.03370
C47         C  0.44569002  0.03708164  0.46504591    -0.03370
C48         C  0.04805406  0.46262950  0.46605144    -0.03370
C49         C  0.04492061  0.04234034  0.46635941    -0.03370
C50         C  0.47290865  0.99776014  0.44996783    -0.00320
C51         C  0.02059937  0.00098184  0.44944563    -0.00320
C52         C  0.44799992  0.46109859  0.03765356    -0.03370
C53         C  0.04889623  0.46150413  0.03422735    -0.03370
C54         C  0.47631171  0.43731804  0.00402391    -0.00320
C55         C  0.02194141  0.43893626  0.00104042    -0.00320
C56         C  0.04445073  0.04219386  0.03584996    -0.03370
C57         C  0.47275429  0.00098043  0.05243131    -0.00320
C58         C  0.02071905  0.00112149  0.05230811    -0.00320
C59         C  0.07691157  0.48254154  0.99978514    -0.00320
C60         C  0.07552167  0.02473075  0.00075221    -0.00320
C61         C  0.47109555  0.06235937  0.99931639    -0.00320
C62         C  0.01656794  0.06373446  0.00061891    -0.00320
C63         C  0.44469287  0.03968776  0.03443093    -0.03370
C64         C  0.41776255  0.47721014  0.00267535    -0.00320
C65         C  0.41596030  0.01895479  0.00045965    -0.00320
C66         C  0.36056838  0.41299694  0.39149800    -0.02730
C67         C  0.37828747  0.37389340  0.37677962     0.06950
C68         C  0.41847747  0.35833842  0.39621662    -0.02850
C69         C  0.44123765  0.38312874  0.42726882    -0.02850
C70         C  0.42332050  0.42364551  0.44053487     0.07080
C71         C  0.37775643  0.43069303  0.42884143    -0.03050
Br72       Br  0.33268151  0.42535887  0.47350860    -0.01590
Br73       Br  0.30756539  0.44059416  0.36772379    -0.01670
Br74       Br  0.49401055  0.35658201  0.45123253    -0.01620
Br75       Br  0.44377975  0.30306992  0.38123622    -0.01610
C76         C  0.37363713  0.06998047  0.42865135    -0.02730
C77         C  0.42125306  0.06370920  0.42881601     0.06950
C78         C  0.44467799  0.08324183  0.39365971    -0.02850
C79         C  0.42443050  0.11655158  0.36968676    -0.02850
C80         C  0.37867700  0.12798760  0.37740762     0.07080
C81         C  0.35383251  0.10505772  0.40825765    -0.03050
Br82       Br  0.29090952  0.11917193  0.42088079    -0.01590
Br83       Br  0.33433964  0.02226650  0.43138244    -0.01670
Br84       Br  0.45853632  0.14363089  0.32368564    -0.01620
Br85       Br  0.49488694  0.05571114  0.36618872    -0.01610
C86         C  0.07523208  0.38411570  0.37108234    -0.02730
C87         C  0.11956293  0.37039853  0.38074578     0.06950
C88         C  0.14234815  0.38961294  0.41477014    -0.02850
C89         C  0.12210746  0.42331053  0.43766321    -0.02850
C90         C  0.07476656  0.43344485  0.43309738     0.07080
C91         C  0.05377307  0.41641064  0.39562807    -0.03050
Br92       Br  0.00193563  0.44299854  0.36920727    -0.01590
Br93       Br  0.04467054  0.36076192  0.32185975    -0.01670
Br94       Br  0.16590931  0.46418831  0.45700728    -0.01620
Br95       Br  0.20329742  0.37109361  0.42906648    -0.01610
C96         C  0.35181248  0.39596041  0.09204481    -0.02730
C97         C  0.37507410  0.37200737  0.12277415     0.06860
C98         C  0.42086421  0.38169581  0.13102195    -0.02850
C99         C  0.44274797  0.41446296  0.10781585    -0.02850
C100        C  0.42139174  0.43492841  0.07280027     0.07080
C101        C  0.37341889  0.43029517  0.07175717    -0.03050
Br102      Br  0.33561849  0.47958303  0.06721310    -0.01590
Br103      Br  0.28928986  0.38349841  0.07853922    -0.01670
Br104      Br  0.49481352  0.43780858  0.13396308    -0.01620
Br105      Br  0.45354924  0.35256479  0.17617055    -0.01610
C106        C  0.13927212  0.08406191  0.38800089    -0.02730
C107        C  0.13115929  0.12810923  0.38526256     0.06950
C108        C  0.09473910  0.14504116  0.40960392    -0.02850
C109        C  0.06407536  0.11808778  0.43221370    -0.02850
C110        C  0.07130035  0.07297834  0.43429490     0.07080
C111        C  0.10670596  0.05726097  0.40712986    -0.03050
Br112      Br  0.09882550  0.00697607  0.37442020    -0.01590
Br113      Br  0.19329366  0.05729405  0.36369224    -0.01670
Br114      Br  0.00729732  0.14482664  0.44778571    -0.01620
Br115      Br  0.08855017  0.20607809  0.41509517    -0.01610
C116        C  0.14551848  0.41529570  0.10889587    -0.02730
C117        C  0.12781672  0.37536873  0.12239001     0.06950
C118        C  0.08763117  0.36097585  0.10295520    -0.02850
C119        C  0.06342348  0.38718585  0.07398700    -0.02850
C120        C  0.07842846  0.42964014  0.06279410     0.07080
C121        C  0.12335330  0.44013140  0.07724733    -0.03050
Br122      Br  0.15712910  0.48983081  0.05793352    -0.01590
Br123      Br  0.19885509  0.43996848  0.13554784    -0.01670
Br124      Br  0.00942036  0.36011514  0.05293100    -0.01620
Br125      Br  0.06347468  0.30455095  0.11610979    -0.01610
C126        C  0.37676877  0.09175984  0.05799716    -0.02730
C127        C  0.41901018  0.07036468  0.06714518     0.06950
C128        C  0.43897121  0.08180979  0.10713503    -0.02850
C129        C  0.42226575  0.11571325  0.13220049    -0.02850
C130        C  0.38133715  0.13531388  0.12171896     0.07080
C131        C  0.35921269  0.12424940  0.08437958    -0.03050
Br132      Br  0.30275167  0.15395963  0.07097152    -0.01590
Br133      Br  0.33264499  0.07270099  0.01905347    -0.01670
Br134      Br  0.45336340  0.13326749  0.18374142    -0.01620
Br135      Br  0.47857849  0.04556116  0.13767115    -0.01610
C136        C  0.09355911  0.05627720  0.10655402    -0.02730
C137        C  0.06859304  0.07207397  0.07037764     0.06950
C138        C  0.06693076  0.11740170  0.06791094    -0.02850
C139        C  0.09815668  0.14324928  0.09027214    -0.02850
C140        C  0.12601579  0.12623660  0.12245529     0.07080
C141        C  0.12326322  0.08230810  0.13047238    -0.03050
Br142      Br  0.15752897  0.05720729  0.17734557    -0.01590
Br143      Br  0.07899325  0.00436980  0.13555010    -0.01670
Br144      Br  0.10321638  0.20253892  0.07555485    -0.01620
Br145      Br  0.01210095  0.14645108  0.05235155    -0.01610
N146        N  0.19696921  0.33030870  0.70455382    -0.07000
N147        N  0.19001761  0.36000432  0.67561263    -0.59120
N148        N  0.16298328  0.29895610  0.80209244    -0.06680
N149        N  0.13132426  0.30758095  0.83140579    -0.61250
N150        N  0.19487247  0.32826049  0.80226501    -0.06280
N151        N  0.18545407  0.35727004  0.83141708    -0.59100
N152        N  0.16459273  0.30176949  0.70369993    -0.05960
N153        N  0.13475190  0.31242890  0.67423508    -0.61600
C154        C  0.15101604  0.34893175  0.65640938     0.95170
C155        C  0.14603049  0.34391878  0.84976483     0.94950
N156        N  0.19892889  0.17038812  0.79983093    -0.07190
N157        N  0.19389633  0.14276613  0.83133057    -0.59700
N158        N  0.16567571  0.19960175  0.70084108    -0.05310
N159        N  0.13516796  0.18969862  0.67150813    -0.60950
N160        N  0.19926476  0.17186432  0.70009524    -0.07220
N161        N  0.19259508  0.14338005  0.66987695    -0.59970
N162        N  0.16540642  0.19805065  0.80037295    -0.04950
N163        N  0.13663810  0.18906388  0.83209871    -0.61040
Mn164      Mn  0.16283720  0.24942259  0.75163196     1.18440
C165        C  0.15503509  0.15451829  0.85166902     0.97250
C166        C  0.15245760  0.15450558  0.65204767     0.97920
N167        N  0.30262432  0.32953620  0.80081134    -0.07240
N168        N  0.31194074  0.35943433  0.82859448    -0.63550
N169        N  0.33458769  0.30107227  0.70200181    -0.06040
N170        N  0.36432418  0.30901012  0.67099950    -0.64220
N171        N  0.30278239  0.33043236  0.70314784    -0.06750
N172        N  0.31049562  0.35922512  0.67320551    -0.63810
N173        N  0.33555380  0.30141023  0.79957770    -0.05640
N174        N  0.36793209  0.31209784  0.82625291    -0.64500
Mn175      Mn  0.24926393  0.33055391  0.75295110     1.10660
C176        C  0.35285952  0.34841749  0.84454587     0.98480
C177        C  0.34878028  0.34532278  0.65314156     0.98550
N178        N  0.30670157  0.17308873  0.70151102    -0.06750
N179        N  0.31650912  0.14468350  0.67201605    -0.62130
N180        N  0.33709479  0.20105169  0.80010863    -0.06070
N181        N  0.36801267  0.19196653  0.82928149    -0.58860
N182        N  0.30578191  0.17132822  0.79916646    -0.07380
N183        N  0.31480570  0.14144684  0.82747964    -0.61690
N184        N  0.33817864  0.20258776  0.70219139    -0.06370
N185        N  0.37008621  0.19514899  0.67303074    -0.58880
Mn186      Mn  0.25243257  0.17061876  0.75004210     1.20190
Mn187      Mn  0.33748495  0.25157844  0.75114691     1.10090
Cl188      Cl  0.25025784  0.25050740  0.75161159    -0.86850
C189        C  0.35581277  0.15909358  0.65438804     0.95480
C190        C  0.35335203  0.15478946  0.84644733     0.95280
C191        C  0.44846535  0.45706457  0.96957090    -0.03370
C192        C  0.44569000  0.03708164  0.96504592    -0.03370
C193        C  0.04805407  0.46262951  0.96605145    -0.03370
C194        C  0.04492060  0.04234034  0.96635942    -0.03370
C195        C  0.47290864  0.99776014  0.94996783    -0.00320
C196        C  0.02059937  0.00098183  0.94944563    -0.00320
C197        C  0.44799993  0.46109859  0.53765357    -0.03370
C198        C  0.04889623  0.46150412  0.53422734    -0.03370
C199        C  0.47631172  0.43731803  0.50402393    -0.00320
C200        C  0.02194140  0.43893625  0.50104042    -0.00320
C201        C  0.04445074  0.04219386  0.53584996    -0.03370
C202        C  0.47275431  0.00098045  0.55243131    -0.00320
C203        C  0.02071907  0.00112150  0.55230811    -0.00320
C204        C  0.07691157  0.48254153  0.49978513    -0.00320
C205        C  0.07552169  0.02473075  0.50075220    -0.00320
C206        C  0.47109557  0.06235937  0.49931638    -0.00320
C207        C  0.01656796  0.06373446  0.50061891    -0.00320
C208        C  0.44469288  0.03968777  0.53443092    -0.03370
C209        C  0.41776256  0.47721013  0.50267537    -0.00320
C210        C  0.41596032  0.01895480  0.50045965    -0.00320
C211        C  0.36056845  0.41299700  0.89149791    -0.02730
C212        C  0.37828748  0.37389342  0.87677961     0.06950
C213        C  0.41847744  0.35833840  0.89621666    -0.02850
C214        C  0.44123762  0.38312872  0.92726884    -0.02850
C215        C  0.42332051  0.42364553  0.94053485     0.07080
C216        C  0.37775646  0.43069309  0.92884136    -0.03050
Br217      Br  0.33268150  0.42535886  0.97350848    -0.01590
Br218      Br  0.30756558  0.44059430  0.86772356    -0.01670
Br219      Br  0.49401054  0.35658201  0.95123254    -0.01620
Br220      Br  0.44377962  0.30306983  0.88123637    -0.01610
C221        C  0.37363711  0.06998052  0.92865140    -0.02730
C222        C  0.42125304  0.06370921  0.92881603     0.06950
C223        C  0.44467796  0.08324183  0.89365972    -0.02850
C224        C  0.42443048  0.11655158  0.86968677    -0.02850
C225        C  0.37867699  0.12798763  0.87740767     0.07080
C226        C  0.35383251  0.10505779  0.90825772    -0.03050
Br227      Br  0.29090954  0.11917204  0.92088089    -0.01590
Br228      Br  0.33433960  0.02226656  0.93138244    -0.01670
Br229      Br  0.45853628  0.14363086  0.82368562    -0.01620
Br230      Br  0.49488691  0.05571113  0.86618873    -0.01610
C231        C  0.07523207  0.38411570  0.87108236    -0.02730
C232        C  0.11956293  0.37039854  0.88074579     0.06950
C233        C  0.14234816  0.38961295  0.91477015    -0.02850
C234        C  0.12210747  0.42331054  0.93766322    -0.02850
C235        C  0.07476657  0.43344486  0.93309739     0.07080
C236        C  0.05377307  0.41641065  0.89562808    -0.03050
Br237      Br  0.00193564  0.44299856  0.86920727    -0.01590
Br238      Br  0.04467053  0.36076192  0.82185978    -0.01670
Br239      Br  0.16590931  0.46418831  0.95700731    -0.01620
Br240      Br  0.20329743  0.37109363  0.92906648    -0.01610
C241        C  0.35181248  0.39596044  0.59204485    -0.02730
C242        C  0.37507411  0.37200737  0.62277416     0.06860
C243        C  0.42086422  0.38169579  0.63102196    -0.02850
C244        C  0.44274799  0.41446295  0.60781586    -0.02850
C245        C  0.42139176  0.43492841  0.57280029     0.07080
C246        C  0.37341890  0.43029519  0.57175721    -0.03050
Br247      Br  0.33561853  0.47958308  0.56721319    -0.01590
Br248      Br  0.28928986  0.38349847  0.57853926    -0.01670
Br249      Br  0.49481354  0.43780857  0.63396309    -0.01620
Br250      Br  0.45354926  0.35256475  0.67617054    -0.01610
C251        C  0.13927210  0.08406191  0.88800088    -0.02730
C252        C  0.13115927  0.12810924  0.88526257     0.06950
C253        C  0.09473908  0.14504116  0.90960393    -0.02850
C254        C  0.06407535  0.11808778  0.93221371    -0.02850
C255        C  0.07130033  0.07297833  0.93429490     0.07080
C256        C  0.10670594  0.05726097  0.90712985    -0.03050
Br257      Br  0.09882548  0.00697606  0.87442021    -0.01590
Br258      Br  0.19329362  0.05729405  0.86369220    -0.01670
Br259      Br  0.00729731  0.14482664  0.94778571    -0.01620
Br260      Br  0.08855017  0.20607809  0.91509520    -0.01610
C261        C  0.14551848  0.41529569  0.60889587    -0.02730
C262        C  0.12781671  0.37536872  0.62239002     0.06950
C263        C  0.08763116  0.36097584  0.60295521    -0.02850
C264        C  0.06342347  0.38718584  0.57398700    -0.02850
C265        C  0.07842846  0.42964013  0.56279409     0.07080
C266        C  0.12335330  0.44013138  0.57724731    -0.03050
Br267      Br  0.15712911  0.48983078  0.55793349    -0.01590
Br268      Br  0.19885507  0.43996848  0.63554784    -0.01670
Br269      Br  0.00942036  0.36011513  0.55293100    -0.01620
Br270      Br  0.06347464  0.30455096  0.61610983    -0.01610
C271        C  0.37676877  0.09175984  0.55799718    -0.02730
C272        C  0.41901020  0.07036469  0.56714518     0.06950
C273        C  0.43897123  0.08180980  0.60713503    -0.02850
C274        C  0.42226576  0.11571326  0.63220050    -0.02850
C275        C  0.38133714  0.13531384  0.62171900     0.07080
C276        C  0.35921265  0.12424936  0.58437963    -0.03050
Br277      Br  0.30275157  0.15395952  0.57097163    -0.01590
Br278      Br  0.33264505  0.07270106  0.51905339    -0.01670
Br279      Br  0.45336344  0.13326751  0.68374141    -0.01620
Br280      Br  0.47857852  0.04556117  0.63767114    -0.01610
C281        C  0.09355913  0.05627721  0.60655401    -0.02730
C282        C  0.06859305  0.07207397  0.57037763     0.06950
C283        C  0.06693078  0.11740171  0.56791094    -0.02850
C284        C  0.09815669  0.14324928  0.59027216    -0.02850
C285        C  0.12601580  0.12623660  0.62245529     0.07080
C286        C  0.12326324  0.08230809  0.63047237    -0.03050
Br287      Br  0.15752901  0.05720727  0.67734555    -0.01590
Br288      Br  0.07899325  0.00436981  0.63555010    -0.01670
Br289      Br  0.10321638  0.20253893  0.57555488    -0.01620
Br290      Br  0.01210096  0.14645108  0.55235155    -0.01610
N291        N  0.19697397  0.83031779  0.20454595    -0.07000
N292        N  0.19002250  0.86000861  0.17559932    -0.59120
N293        N  0.16300414  0.79897698  0.30209775    -0.06680
N294        N  0.13135391  0.80760842  0.33141731    -0.61250
N295        N  0.19489333  0.82828114  0.30225685    -0.06280
N296        N  0.18548284  0.85729764  0.33140341    -0.59100
N297        N  0.16459412  0.80178135  0.20370071    -0.05960
N298        N  0.13475220  0.81243720  0.17423482    -0.61600
C299        C  0.15101838  0.84893552  0.15640017     0.95170
C300        C  0.14606478  0.84395103  0.34976454     0.94950
N301        N  0.19893548  0.67040310  0.29984088    -0.07190
N302        N  0.19390315  0.64277988  0.33133942    -0.59700
N303        N  0.16566887  0.69961418  0.20085455    -0.05310
N304        N  0.13515524  0.68971204  0.17152668    -0.60950
N305        N  0.19925588  0.67187450  0.20010516    -0.07220
N306        N  0.19257848  0.64338874  0.16988979    -0.59970
N307        N  0.16541508  0.69806802  0.30038716    -0.04950
N308        N  0.13664882  0.68908088  0.33211515    -0.61040
Mn309      Mn  0.16284287  0.74943858  0.25164163     1.18440
C310        C  0.15504480  0.65453272  0.35168263     0.97250
C311        C  0.15243894  0.65451691  0.15206595     0.97920
N312        N  0.30263717  0.82954403  0.30079737    -0.07240
N313        N  0.31194843  0.85943817  0.32858654    -0.63550
N314        N  0.33459499  0.80107185  0.20199017    -0.06040
N315        N  0.36433390  0.80900754  0.17098953    -0.64220
N316        N  0.30279031  0.83043250  0.20313322    -0.06750
N317        N  0.31050609  0.85922379  0.17319034    -0.63810
N318        N  0.33556632  0.80141744  0.29956439    -0.05640
N319        N  0.36794193  0.81210277  0.32624337    -0.64500
Mn320      Mn  0.24927574  0.83056312  0.25293848     1.10660
C321        C  0.35286547  0.84841949  0.34454004     0.98480
C322        C  0.34879147  0.84531930  0.15312949     0.98550
N323        N  0.30669566  0.67309360  0.20150500    -0.06750
N324        N  0.31649760  0.64468857  0.17200809    -0.62130
N325        N  0.33710946  0.70105267  0.30009774    -0.06070
N326        N  0.36803867  0.69195838  0.32925774    -0.58860
N327        N  0.30579346  0.67133161  0.29915973    -0.07380
N328        N  0.31482584  0.64144368  0.32746357    -0.61690
N329        N  0.33817505  0.70259070  0.20218214    -0.06370
N330        N  0.37007762  0.69515147  0.17301706    -0.58880
Mn331      Mn  0.25243298  0.67062756  0.25004405     1.20190
Mn332      Mn  0.33749240  0.75158143  0.25113658     1.10090
Cl333      Cl  0.25026419  0.75051623  0.25160931    -0.86850
C334        C  0.35579956  0.65909753  0.15437506     0.95480
C335        C  0.35338103  0.65477895  0.34642096     0.95280
C336        C  0.44846116  0.95706641  0.46956445    -0.03370
C337        C  0.44570527  0.53707968  0.46504358    -0.03370
C338        C  0.04804950  0.96264249  0.46603189    -0.03370
C339        C  0.04493562  0.54233477  0.46637476    -0.03370
C340        C  0.47292208  0.49775519  0.44997477    -0.00320
C341        C  0.02061354  0.50097374  0.44945895    -0.00320
C342        C  0.44800511  0.96109625  0.03764619    -0.03370
C343        C  0.04890010  0.96150466  0.03420772    -0.03370
C344        C  0.47631445  0.93731924  0.00401119    -0.00320
C345        C  0.02194379  0.93893889  0.00102010    -0.00320
C346        C  0.04445082  0.54219165  0.03586606    -0.03370
C347        C  0.47274945  0.50098283  0.05243797    -0.00320
C348        C  0.02071422  0.50112215  0.05232219    -0.00320
C349        C  0.07690810  0.98254934  0.99976479    -0.00320
C350        C  0.07552831  0.52472412  0.00077265    -0.00320
C351        C  0.47110463  0.56235772  0.99931789    -0.00320
C352        C  0.01657672  0.56373043  0.00062870    -0.00320
C353        C  0.44469324  0.53968989  0.03442935    -0.03370
C354        C  0.41776108  0.97720757  0.00267397    -0.00320
C355        C  0.41596656  0.51895712  0.00045462    -0.00320
C356        C  0.36058729  0.91301061  0.39147384    -0.02730
C357        C  0.37828826  0.87389123  0.37677930     0.06950
C358        C  0.41845804  0.85832173  0.39624027    -0.02850
C359        C  0.44122491  0.88311814  0.42728297    -0.02850
C360        C  0.42331816  0.92364580  0.44053093     0.07080
C361        C  0.37776186  0.93070469  0.42882322    -0.03050
Br362      Br  0.33267845  0.92534095  0.47347929    -0.01590
Br363      Br  0.30762117  0.94063310  0.36766081    -0.01670
Br364      Br  0.49401134  0.85658006  0.45123050    -0.01620
Br365      Br  0.44371987  0.80302495  0.38130670    -0.01610
C366        C  0.37366494  0.56998154  0.42863747    -0.02730
C367        C  0.42127923  0.56370507  0.42880427     0.06950
C368        C  0.44470713  0.58322628  0.39364077    -0.02850
C369        C  0.42445773  0.61652738  0.36965421    -0.02850
C370        C  0.37870764  0.62797451  0.37737918     0.07080
C371        C  0.35386468  0.60505795  0.40823987    -0.03050
Br372      Br  0.29094634  0.61918386  0.42086890    -0.01590
Br373      Br  0.33436775  0.52226778  0.43135221    -0.01670
Br374      Br  0.45855412  0.64358440  0.32363391    -0.01620
Br375      Br  0.49494886  0.55571116  0.36620128    -0.01610
C376        C  0.07524444  0.88411077  0.37109497    -0.02730
C377        C  0.11960022  0.87044436  0.38073661     0.06950
C378        C  0.14239830  0.88972152  0.41471980    -0.02850
C379        C  0.12213448  0.92341444  0.43760113    -0.02850
C380        C  0.07477474  0.93348219  0.43307005     0.07080
C381        C  0.05377417  0.91640879  0.39562603    -0.03050
Br382      Br  0.00191725  0.94296432  0.36920487    -0.01590
Br383      Br  0.04465629  0.86068868  0.32192086    -0.01670
Br384      Br  0.16589195  0.96437663  0.45686511    -0.01620
Br385      Br  0.20338921  0.87129757  0.42898179    -0.01610
C386        C  0.35182670  0.89594290  0.09202515    -0.02730
C387        C  0.37508703  0.87200182  0.12276377     0.06860
C388        C  0.42087174  0.88170287  0.13102213    -0.02850
C389        C  0.44275388  0.91446990  0.10781446    -0.02850
C390        C  0.42139875  0.93492534  0.07279218     0.07080
C391        C  0.37342720  0.93028109  0.07174012    -0.03050
Br392      Br  0.33561326  0.97956025  0.06719493    -0.01590
Br393      Br  0.28931075  0.88346389  0.07850863    -0.01670
Br394      Br  0.49482198  0.93781972  0.13395626    -0.01620
Br395      Br  0.45354974  0.85258660  0.17618441    -0.01610
C396        C  0.13930300  0.58407752  0.38803067    -0.02730
C397        C  0.13117192  0.62812140  0.38527898     0.06950
C398        C  0.09474377  0.64504549  0.40961549    -0.02850
C399        C  0.06408588  0.61808623  0.43222666    -0.02850
C400        C  0.07132561  0.57297820  0.43431928     0.07080
C401        C  0.10675012  0.55726859  0.40717113    -0.03050
Br402      Br  0.09893558  0.50693989  0.37452201    -0.01590
Br403      Br  0.19334324  0.55732613  0.36373827    -0.01670
Br404      Br  0.00729755  0.64481443  0.44778457    -0.01620
Br405      Br  0.08853531  0.70608154  0.41509912    -0.01610
C406        C  0.14553224  0.91528451  0.10886129    -0.02730
C407        C  0.12782069  0.87536709  0.12237356     0.06950
C408        C  0.08762832  0.86097821  0.10294762    -0.02850
C409        C  0.06342199  0.88718675  0.07397575    -0.02850
C410        C  0.07843473  0.92963542  0.06276980     0.07080
C411        C  0.12336840  0.94011525  0.07720725    -0.03050
Br412      Br  0.15715741  0.98979441  0.05786596    -0.01590
Br413      Br  0.19888128  0.93995267  0.13549523    -0.01670
Br414      Br  0.00941519  0.86011955  0.05292616    -0.01620
Br415      Br  0.06346282  0.80456044  0.11611795    -0.01610
C416        C  0.37675940  0.59175697  0.05798661    -0.02730
C417        C  0.41900378  0.57036766  0.06713729     0.06950
C418        C  0.43895976  0.58181452  0.10712793    -0.02850
C419        C  0.42225645  0.61572341  0.13218583    -0.02850
C420        C  0.38132222  0.63531541  0.12170652     0.07080
C421        C  0.35919476  0.62424138  0.08437120    -0.03050
Br422      Br  0.30272125  0.65393380  0.07096942    -0.01590
Br423      Br  0.33264833  0.57270091  0.01902792    -0.01670
Br424      Br  0.45336194  0.63328889  0.18371820    -0.01620
Br425      Br  0.47852752  0.54554673  0.13768714    -0.01610
C426        C  0.09351948  0.55628872  0.10659683    -0.02730
C427        C  0.06858047  0.57207697  0.07039893     0.06950
C428        C  0.06692746  0.61740450  0.06791838    -0.02850
C429        C  0.09814991  0.64325379  0.09028198    -0.02850
C430        C  0.12598946  0.62624628  0.12248255     0.07080
C431        C  0.12321295  0.58232376  0.13052296    -0.03050
Br432      Br  0.15743073  0.55724326  0.17743891    -0.01590
Br433      Br  0.07895124  0.50437927  0.13558802    -0.01670
Br434      Br  0.10322342  0.70253969  0.07555267    -0.01620
Br435      Br  0.01210263  0.64645582  0.05234822    -0.01610
N436        N  0.19697396  0.83031779  0.70454596    -0.07000
N437        N  0.19002249  0.86000862  0.67559933    -0.59120
N438        N  0.16300412  0.79897697  0.80209776    -0.06680
N439        N  0.13135390  0.80760841  0.83141732    -0.61250
N440        N  0.19489331  0.82828114  0.80225686    -0.06280
N441        N  0.18548283  0.85729763  0.83140342    -0.59100
N442        N  0.16459410  0.80178135  0.70370072    -0.05960
N443        N  0.13475218  0.81243720  0.67423483    -0.61600
C444        C  0.15101837  0.84893553  0.65640018     0.95170
C445        C  0.14606477  0.84395102  0.84976455     0.94950
N446        N  0.19893547  0.67040310  0.79984088    -0.07190
N447        N  0.19390314  0.64277989  0.83133942    -0.59700
N448        N  0.16566886  0.69961418  0.70085455    -0.05310
N449        N  0.13515523  0.68971203  0.67152668    -0.60950
N450        N  0.19925588  0.67187450  0.70010516    -0.07220
N451        N  0.19257848  0.64338875  0.66988979    -0.59970
N452        N  0.16541507  0.69806802  0.80038716    -0.04950
N453        N  0.13664881  0.68908089  0.83211516    -0.61040
Mn454      Mn  0.16284286  0.74943858  0.75164163     1.18440
C455        C  0.15504480  0.65453272  0.85168264     0.97250
C456        C  0.15243894  0.65451691  0.65206594     0.97920
N457        N  0.30263715  0.82954403  0.80079738    -0.07240
N458        N  0.31194842  0.85943817  0.82858655    -0.63550
N459        N  0.33459498  0.80107186  0.70199017    -0.06040
N460        N  0.36433389  0.80900757  0.67098953    -0.64220
N461        N  0.30279029  0.83043251  0.70313323    -0.06750
N462        N  0.31050607  0.85922382  0.67319036    -0.63810
N463        N  0.33556632  0.80141745  0.79956438    -0.05640
N464        N  0.36794194  0.81210279  0.82624334    -0.64500
Mn465      Mn  0.24927572  0.83056313  0.75293849     1.10660
C466        C  0.35286547  0.84841950  0.84454002     0.98480
C467        C  0.34879146  0.84531934  0.65312951     0.98550
N468        N  0.30669565  0.67309360  0.70150500    -0.06750
N469        N  0.31649759  0.64468856  0.67200810    -0.62130
N470        N  0.33710946  0.70105268  0.80009774    -0.06070
N471        N  0.36803866  0.69195839  0.82925774    -0.58860
N472        N  0.30579345  0.67133162  0.79915974    -0.07380
N473        N  0.31482583  0.64144370  0.82746358    -0.61690
N474        N  0.33817504  0.70259070  0.70218214    -0.06370
N475        N  0.37007761  0.69515147  0.67301705    -0.58880
Mn476      Mn  0.25243297  0.67062756  0.75004405     1.20190
Mn477      Mn  0.33749239  0.75158144  0.75113657     1.10090
Cl478      Cl  0.25026418  0.75051623  0.75160931    -0.86850
C479        C  0.35579955  0.65909752  0.65437507     0.95480
C480        C  0.35338101  0.65477897  0.84642097     0.95280
C481        C  0.44846116  0.95706641  0.96956444    -0.03370
C482        C  0.44570526  0.53707969  0.96504357    -0.03370
C483        C  0.04804949  0.96264249  0.96603189    -0.03370
C484        C  0.04493562  0.54233478  0.96637478    -0.03370
C485        C  0.47292207  0.49775520  0.94997476    -0.00320
C486        C  0.02061355  0.50097375  0.94945896    -0.00320
C487        C  0.44800512  0.96109627  0.53764620    -0.03370
C488        C  0.04890011  0.96150467  0.53420771    -0.03370
C489        C  0.47631446  0.93731924  0.50401120    -0.00320
C490        C  0.02194380  0.93893889  0.50102010    -0.00320
C491        C  0.04445083  0.54219164  0.53586604    -0.03370
C492        C  0.47274946  0.50098283  0.55243798    -0.00320
C493        C  0.02071423  0.50112215  0.55232219    -0.00320
C494        C  0.07690811  0.98254934  0.49976479    -0.00320
C495        C  0.07552831  0.52472411  0.50077264    -0.00320
C496        C  0.47110464  0.56235771  0.49931790    -0.00320
C497        C  0.01657673  0.56373042  0.50062869    -0.00320
C498        C  0.44469325  0.53968989  0.53442936    -0.03370
C499        C  0.41776109  0.97720758  0.50267398    -0.00320
C500        C  0.41596657  0.51895712  0.50045463    -0.00320
C501        C  0.36058737  0.91301068  0.89147373    -0.02730
C502        C  0.37828828  0.87389125  0.87677927     0.06950
C503        C  0.41845801  0.85832171  0.89624029    -0.02850
C504        C  0.44122489  0.88311813  0.92728299    -0.02850
C505        C  0.42331817  0.92364581  0.94053091     0.07080
C506        C  0.37776189  0.93070475  0.92882314    -0.03050
Br507      Br  0.33267843  0.92534097  0.97347916    -0.01590
Br508      Br  0.30762138  0.94063326  0.86766056    -0.01670
Br509      Br  0.49401133  0.85658004  0.95123050    -0.01620
Br510      Br  0.44371977  0.80302489  0.88130681    -0.01610
C511        C  0.37366492  0.56998156  0.92863748    -0.02730
C512        C  0.42127920  0.56370508  0.92880427     0.06950
C513        C  0.44470711  0.58322629  0.89364077    -0.02850
C514        C  0.42445771  0.61652739  0.86965420    -0.02850
C515        C  0.37870762  0.62797454  0.87737919     0.07080
C516        C  0.35386467  0.60505798  0.90823989    -0.03050
Br517      Br  0.29094634  0.61918391  0.92086893    -0.01590
Br518      Br  0.33436772  0.52226781  0.93135222    -0.01670
Br519      Br  0.45855409  0.64358440  0.82363390    -0.01620
Br520      Br  0.49494882  0.55571115  0.86620126    -0.01610
C521        C  0.07524442  0.88411075  0.87109499    -0.02730
C522        C  0.11960021  0.87044434  0.88073662     0.06950
C523        C  0.14239829  0.88972152  0.91471980    -0.02850
C524        C  0.12213447  0.92341444  0.93760114    -0.02850
C525        C  0.07477473  0.93348218  0.93307006     0.07080
C526        C  0.05377416  0.91640877  0.89562604    -0.03050
Br527      Br  0.00191724  0.94296430  0.86920488    -0.01590
Br528      Br  0.04465626  0.86068862  0.82192091    -0.01670
Br529      Br  0.16589194  0.96437664  0.95686512    -0.01620
Br530      Br  0.20338921  0.87129758  0.92898179    -0.01610
C531        C  0.35182668  0.89594299  0.59202521    -0.02730
C532        C  0.37508701  0.87200188  0.62276380     0.06860
C533        C  0.42087175  0.88170288  0.63102213    -0.02850
C534        C  0.44275389  0.91446991  0.60781446    -0.02850
C535        C  0.42139876  0.93492537  0.57279221     0.07080
C536        C  0.37342720  0.93028117  0.57174018    -0.03050
Br537      Br  0.33561331  0.97956037  0.56719499    -0.01590
Br538      Br  0.28931071  0.88346405  0.57850873    -0.01670
Br539      Br  0.49482199  0.93781971  0.63395626    -0.01620
Br540      Br  0.45354976  0.85258657  0.67618437    -0.01610
C541        C  0.13930301  0.58407754  0.88803070    -0.02730
C542        C  0.13117191  0.62812142  0.88527899     0.06950
C543        C  0.09474376  0.64504550  0.90961549    -0.02850
C544        C  0.06408587  0.61808624  0.93222667    -0.02850
C545        C  0.07132561  0.57297821  0.93431929     0.07080
C546        C  0.10675013  0.55726860  0.90717115    -0.03050
Br547      Br  0.09893560  0.50693990  0.87452203    -0.01590
Br548      Br  0.19334326  0.55732615  0.86373833    -0.01670
Br549      Br  0.00729754  0.64481443  0.94778457    -0.01620
Br550      Br  0.08853528  0.70608155  0.91509911    -0.01610
C551        C  0.14553222  0.91528453  0.60886132    -0.02730
C552        C  0.12782068  0.87536710  0.62237356     0.06950
C553        C  0.08762833  0.86097820  0.60294760    -0.02850
C554        C  0.06342200  0.88718674  0.57397573    -0.02850
C555        C  0.07843474  0.92963542  0.56276979     0.07080
C556        C  0.12336839  0.94011525  0.57720726    -0.03050
Br557      Br  0.15715742  0.98979441  0.55786596    -0.01590
Br558      Br  0.19888120  0.93995272  0.63549532    -0.01670
Br559      Br  0.00941520  0.86011955  0.55292615    -0.01620
Br560      Br  0.06346285  0.80456042  0.61611791    -0.01610
C561        C  0.37675940  0.59175696  0.55798661    -0.02730
C562        C  0.41900379  0.57036766  0.56713729     0.06950
C563        C  0.43895976  0.58181452  0.60712794    -0.02850
C564        C  0.42225644  0.61572341  0.63218584    -0.02850
C565        C  0.38132221  0.63531540  0.62170653     0.07080
C566        C  0.35919475  0.62424136  0.58437120    -0.03050
Br567      Br  0.30272122  0.65393376  0.57096944    -0.01590
Br568      Br  0.33264835  0.57270091  0.51902790    -0.01670
Br569      Br  0.45336193  0.63328889  0.68371821    -0.01620
Br570      Br  0.47852751  0.54554673  0.63768715    -0.01610
C571        C  0.09351951  0.55628872  0.60659681    -0.02730
C572        C  0.06858049  0.57207697  0.57039892     0.06950
C573        C  0.06692747  0.61740449  0.56791836    -0.02850
C574        C  0.09814992  0.64325379  0.59028197    -0.02850
C575        C  0.12598947  0.62624628  0.62248254     0.07080
C576        C  0.12321298  0.58232375  0.63052293    -0.03050
Br577      Br  0.15743077  0.55724325  0.67743888    -0.01590
Br578      Br  0.07895127  0.50437926  0.63558800    -0.01670
Br579      Br  0.10322342  0.70253969  0.57555266    -0.01620
Br580      Br  0.01210264  0.64645581  0.55234821    -0.01610
N581        N  0.69696921  0.33030870  0.20455381    -0.07000
N582        N  0.69001761  0.36000432  0.17561262    -0.59120
N583        N  0.66298328  0.29895609  0.30209243    -0.06680
N584        N  0.63132425  0.30758094  0.33140578    -0.61250
N585        N  0.69487247  0.32826048  0.30226500    -0.06280
N586        N  0.68545406  0.35727003  0.33141707    -0.59100
N587        N  0.66459273  0.30176949  0.20369991    -0.05960
N588        N  0.63475190  0.31242890  0.17423507    -0.61600
C589        C  0.65101604  0.34893175  0.15640937     0.95170
C590        C  0.64603048  0.34391877  0.34976482     0.94950
N591        N  0.69892890  0.17038811  0.29983090    -0.07190
N592        N  0.69389634  0.14276611  0.33133054    -0.59700
N593        N  0.66567571  0.19960175  0.20084105    -0.05310
N594        N  0.63516796  0.18969862  0.17150811    -0.60950
N595        N  0.69926477  0.17186433  0.20009521    -0.07220
N596        N  0.69259509  0.14338005  0.16987692    -0.59970
N597        N  0.66540644  0.19805064  0.30037293    -0.04950
N598        N  0.63663811  0.18906387  0.33209869    -0.61040
Mn599      Mn  0.66283720  0.24942259  0.25163194     1.18440
C600        C  0.65503511  0.15451828  0.35166899     0.97250
C601        C  0.65245759  0.15450558  0.15204765     0.97920
N602        N  0.80262432  0.32953619  0.30081133    -0.07240
N603        N  0.81194074  0.35943432  0.32859447    -0.63550
N604        N  0.83458769  0.30107228  0.20200180    -0.06040
N605        N  0.86432418  0.30901012  0.17099949    -0.64220
N606        N  0.80278239  0.33043236  0.20314783    -0.06750
N607        N  0.81049562  0.35922512  0.17320550    -0.63810
N608        N  0.83555379  0.30141022  0.29957770    -0.05640
N609        N  0.86793207  0.31209781  0.32625293    -0.64500
Mn610      Mn  0.74926393  0.33055391  0.25295109     1.10660
C611        C  0.85285950  0.34841747  0.34454588     0.98480
C612        C  0.84878028  0.34532279  0.15314155     0.98550
N613        N  0.80670157  0.17308874  0.20151097    -0.06750
N614        N  0.81650912  0.14468353  0.17201599    -0.62130
N615        N  0.83709480  0.20105168  0.30010860    -0.06070
N616        N  0.86801267  0.19196651  0.32928146    -0.58860
N617        N  0.80578193  0.17132820  0.29916642    -0.07380
N618        N  0.81480571  0.14144682  0.32747959    -0.61690
N619        N  0.83817865  0.20258777  0.20219136    -0.06370
N620        N  0.87008622  0.19514902  0.17303070    -0.58880
Mn621      Mn  0.75243258  0.17061876  0.25004207     1.20190
Mn622      Mn  0.83748496  0.25157843  0.25114689     1.10090
Cl623      Cl  0.75025785  0.25050740  0.25161158    -0.86850
C624        C  0.85581277  0.15909362  0.15438798     0.95480
C625        C  0.85335204  0.15478944  0.34644729     0.95280
C626        C  0.94846535  0.45706456  0.46957092    -0.03370
C627        C  0.94569001  0.03708164  0.46504591    -0.03370
C628        C  0.54805406  0.46262950  0.46605145    -0.03370
C629        C  0.54492061  0.04234034  0.46635941    -0.03370
C630        C  0.97290865  0.99776014  0.44996782    -0.00320
C631        C  0.52059938  0.00098183  0.44944563    -0.00320
C632        C  0.94799993  0.46109859  0.03765357    -0.03370
C633        C  0.54889622  0.46150413  0.03422734    -0.03370
C634        C  0.97631172  0.43731804  0.00402392    -0.00320
C635        C  0.52194140  0.43893626  0.00104041    -0.00320
C636        C  0.54445073  0.04219386  0.03584996    -0.03370
C637        C  0.97275428  0.00098043  0.05243131    -0.00320
C638        C  0.52071906  0.00112149  0.05230811    -0.00320
C639        C  0.57691156  0.48254154  0.99978513    -0.00320
C640        C  0.57552168  0.02473075  0.00075220    -0.00320
C641        C  0.97109555  0.06235937  0.99931639    -0.00320
C642        C  0.51656794  0.06373446  0.00061891    -0.00320
C643        C  0.94469286  0.03968776  0.03443093    -0.03370
C644        C  0.91776256  0.47721014  0.00267536    -0.00320
C645        C  0.91596030  0.01895479  0.00045965    -0.00320
C646        C  0.86056833  0.41299691  0.39149804    -0.02730
C647        C  0.87828745  0.37389339  0.37677964     0.06950
C648        C  0.91847747  0.35833842  0.39621661    -0.02850
C649        C  0.94123764  0.38312873  0.42726881    -0.02850
C650        C  0.92332049  0.42364551  0.44053488     0.07080
C651        C  0.87775641  0.43069301  0.42884147    -0.03050
Br652      Br  0.83268152  0.42535884  0.47350866    -0.01590
Br653      Br  0.80756529  0.44059409  0.36772389    -0.01670
Br654      Br  0.99401055  0.35658201  0.45123252    -0.01620
Br655      Br  0.94377976  0.30306993  0.38123619    -0.01610
C656        C  0.87363713  0.06998050  0.42865137    -0.02730
C657        C  0.92125305  0.06370921  0.42881601     0.06950
C658        C  0.94467798  0.08324183  0.39365970    -0.02850
C659        C  0.92443049  0.11655157  0.36968675    -0.02850
C660        C  0.87867700  0.12798761  0.37740763     0.07080
C661        C  0.85383252  0.10505775  0.40825768    -0.03050
Br662      Br  0.79090954  0.11917199  0.42088083    -0.01590
Br663      Br  0.83433962  0.02226653  0.43138243    -0.01670
Br664      Br  0.95853630  0.14363086  0.32368561    -0.01620
Br665      Br  0.99488694  0.05571114  0.36618872    -0.01610
C666        C  0.57523207  0.38411570  0.37108234    -0.02730
C667        C  0.61956292  0.37039852  0.38074578     0.06950
C668        C  0.64234814  0.38961291  0.41477016    -0.02850
C669        C  0.62210746  0.42331050  0.43766323    -0.02850
C670        C  0.57476656  0.43344484  0.43309739     0.07080
C671        C  0.55377307  0.41641064  0.39562807    -0.03050
Br672      Br  0.50193563  0.44299856  0.36920727    -0.01590
Br673      Br  0.54467054  0.36076195  0.32185974    -0.01670
Br674      Br  0.66590931  0.46418825  0.45700733    -0.01620
Br675      Br  0.70329739  0.37109355  0.42906651    -0.01610
C676        C  0.85181248  0.39596044  0.09204483    -0.02730
C677        C  0.87507410  0.37200737  0.12277415     0.06860
C678        C  0.92086422  0.38169579  0.13102195    -0.02850
C679        C  0.94274799  0.41446295  0.10781585    -0.02850
C680        C  0.92139175  0.43492841  0.07280028     0.07080
C681        C  0.87341890  0.43029519  0.07175720    -0.03050
Br682      Br  0.83561852  0.47958307  0.06721315    -0.01590
Br683      Br  0.78928985  0.38349846  0.07853925    -0.01670
Br684      Br  0.99481353  0.43780857  0.13396308    -0.01620
Br685      Br  0.95354926  0.35256475  0.17617052    -0.01610
C686        C  0.63927212  0.08406190  0.38800087    -0.02730
C687        C  0.63115929  0.12810923  0.38526255     0.06950
C688        C  0.59473911  0.14504116  0.40960392    -0.02850
C689        C  0.56407537  0.11808778  0.43221369    -0.02850
C690        C  0.57130035  0.07297833  0.43429489     0.07080
C691        C  0.60670596  0.05726096  0.40712985    -0.03050
Br692      Br  0.59882549  0.00697607  0.37442018    -0.01590
Br693      Br  0.69329365  0.05729404  0.36369221    -0.01670
Br694      Br  0.50729733  0.14482665  0.44778571    -0.01620
Br695      Br  0.58855019  0.20607808  0.41509518    -0.01610
C696        C  0.64551847  0.41529569  0.10889587    -0.02730
C697        C  0.62781670  0.37536873  0.12239001     0.06950
C698        C  0.58763115  0.36097585  0.10295521    -0.02850
C699        C  0.56342346  0.38718585  0.07398700    -0.02850
C700        C  0.57842845  0.42964013  0.06279410     0.07080
C701        C  0.62335329  0.44013139  0.07724732    -0.03050
Br702      Br  0.65712910  0.48983079  0.05793349    -0.01590
Br703      Br  0.69885507  0.43996849  0.13554784    -0.01670
Br704      Br  0.50942034  0.36011515  0.05293101    -0.01620
Br705      Br  0.56347464  0.30455096  0.11610982    -0.01610
C706        C  0.87676877  0.09175984  0.05799716    -0.02730
C707        C  0.91901018  0.07036468  0.06714518     0.06950
C708        C  0.93897121  0.08180979  0.10713502    -0.02850
C709        C  0.92226575  0.11571327  0.13220047    -0.02850
C710        C  0.88133716  0.13531389  0.12171895     0.07080
C711        C  0.85921268  0.12424941  0.08437957    -0.03050
Br712      Br  0.80275166  0.15395963  0.07097151    -0.01590
Br713      Br  0.83264498  0.07270098  0.01905348    -0.01670
Br714      Br  0.95336342  0.13326752  0.18374139    -0.01620
Br715      Br  0.97857848  0.04556116  0.13767115    -0.01610
C716        C  0.59355912  0.05627720  0.10655401    -0.02730
C717        C  0.56859304  0.07207397  0.07037763     0.06950
C718        C  0.56693076  0.11740170  0.06791094    -0.02850
C719        C  0.59815668  0.14324928  0.09027215    -0.02850
C720        C  0.62601580  0.12623660  0.12245528     0.07080
C721        C  0.62326324  0.08230809  0.13047236    -0.03050
Br722      Br  0.65752901  0.05720727  0.17734554    -0.01590
Br723      Br  0.57899326  0.00436980  0.13555009    -0.01670
Br724      Br  0.60321636  0.20253893  0.07555487    -0.01620
Br725      Br  0.51210094  0.14645108  0.05235156    -0.01610
N726        N  0.69696921  0.33030870  0.70455383    -0.07000
N727        N  0.69001761  0.36000432  0.67561264    -0.59120
N728        N  0.66298328  0.29895609  0.80209245    -0.06680
N729        N  0.63132426  0.30758095  0.83140580    -0.61250
N730        N  0.69487247  0.32826049  0.80226502    -0.06280
N731        N  0.68545407  0.35727004  0.83141709    -0.59100
N732        N  0.66459273  0.30176949  0.70369994    -0.05960
N733        N  0.63475190  0.31242891  0.67423510    -0.61600
C734        C  0.65101604  0.34893175  0.65640939     0.95170
C735        C  0.64603050  0.34391878  0.84976484     0.94950
N736        N  0.69892890  0.17038811  0.79983092    -0.07190
N737        N  0.69389634  0.14276612  0.83133056    -0.59700
N738        N  0.66567571  0.19960175  0.70084108    -0.05310
N739        N  0.63516796  0.18969862  0.67150813    -0.60950
N740        N  0.69926477  0.17186433  0.70009524    -0.07220
N741        N  0.69259509  0.14338006  0.66987694    -0.59970
N742        N  0.66540643  0.19805064  0.80037295    -0.04950
N743        N  0.63663811  0.18906388  0.83209871    -0.61040
Mn744      Mn  0.66283720  0.24942259  0.75163197     1.18440
C745        C  0.65503510  0.15451829  0.85166901     0.97250
C746        C  0.65245760  0.15450559  0.65204767     0.97920
N747        N  0.80262432  0.32953620  0.80081134    -0.07240
N748        N  0.81194075  0.35943433  0.82859448    -0.63550
N749        N  0.83458769  0.30107228  0.70200181    -0.06040
N750        N  0.86432418  0.30901014  0.67099950    -0.64220
N751        N  0.80278239  0.33043237  0.70314785    -0.06750
N752        N  0.81049562  0.35922513  0.67320552    -0.63810
N753        N  0.83555381  0.30141022  0.79957770    -0.05640
N754        N  0.86793209  0.31209783  0.82625292    -0.64500
Mn755      Mn  0.74926394  0.33055391  0.75295110     1.10660
C756        C  0.85285952  0.34841748  0.84454587     0.98480
C757        C  0.84878028  0.34532281  0.65314157     0.98550
N758        N  0.80670157  0.17308874  0.70151100    -0.06750
N759        N  0.81650912  0.14468351  0.67201602    -0.62130
N760        N  0.83709480  0.20105169  0.80010862    -0.06070
N761        N  0.86801268  0.19196652  0.82928148    -0.58860
N762        N  0.80578193  0.17132821  0.79916644    -0.07380
N763        N  0.81480571  0.14144683  0.82747962    -0.61690
N764        N  0.83817864  0.20258777  0.70219138    -0.06370
N765        N  0.87008621  0.19514901  0.67303072    -0.58880
Mn766      Mn  0.75243258  0.17061876  0.75004209     1.20190
Mn767      Mn  0.83748496  0.25157844  0.75114690     1.10090
Cl768      Cl  0.75025785  0.25050740  0.75161159    -0.86850
C769        C  0.85581276  0.15909360  0.65438801     0.95480
C770        C  0.85335204  0.15478946  0.84644732     0.95280
C771        C  0.94846536  0.45706457  0.96957091    -0.03370
C772        C  0.94569000  0.03708164  0.96504592    -0.03370
C773        C  0.54805406  0.46262952  0.96605144    -0.03370
C774        C  0.54492059  0.04234034  0.96635941    -0.03370
C775        C  0.97290864  0.99776014  0.94996783    -0.00320
C776        C  0.52059937  0.00098184  0.94944563    -0.00320
C777        C  0.94799993  0.46109860  0.53765357    -0.03370
C778        C  0.54889623  0.46150412  0.53422736    -0.03370
C779        C  0.97631172  0.43731803  0.50402393    -0.00320
C780        C  0.52194140  0.43893625  0.50104043    -0.00320
C781        C  0.54445075  0.04219386  0.53584995    -0.03370
C782        C  0.97275430  0.00098044  0.55243131    -0.00320
C783        C  0.52071908  0.00112150  0.55230811    -0.00320
C784        C  0.57691157  0.48254153  0.49978514    -0.00320
C785        C  0.57552169  0.02473075  0.50075220    -0.00320
C786        C  0.97109556  0.06235937  0.49931639    -0.00320
C787        C  0.51656796  0.06373446  0.50061890    -0.00320
C788        C  0.94469288  0.03968777  0.53443092    -0.03370
C789        C  0.91776256  0.47721014  0.50267536    -0.00320
C790        C  0.91596031  0.01895480  0.50045965    -0.00320
C791        C  0.86056841  0.41299697  0.89149796    -0.02730
C792        C  0.87828748  0.37389341  0.87677962     0.06950
C793        C  0.91847746  0.35833842  0.89621664    -0.02850
C794        C  0.94123764  0.38312873  0.92726883    -0.02850
C795        C  0.92332051  0.42364552  0.94053486     0.07080
C796        C  0.87775645  0.43069306  0.92884140    -0.03050
Br797      Br  0.83268152  0.42535887  0.97350855    -0.01590
Br798      Br  0.80756547  0.44059422  0.86772370    -0.01670
Br799      Br  0.99401056  0.35658201  0.95123253    -0.01620
Br800      Br  0.94377970  0.30306989  0.88123628    -0.01610
C801        C  0.87363712  0.06998053  0.92865140    -0.02730
C802        C  0.92125304  0.06370921  0.92881602     0.06950
C803        C  0.94467797  0.08324182  0.89365971    -0.02850
C804        C  0.92443048  0.11655157  0.86968676    -0.02850
C805        C  0.87867700  0.12798763  0.87740766     0.07080
C806        C  0.85383252  0.10505779  0.90825772    -0.03050
Br807      Br  0.79090956  0.11917206  0.92088089    -0.01590
Br808      Br  0.83433959  0.02226658  0.93138243    -0.01670
Br809      Br  0.95853629  0.14363083  0.82368560    -0.01620
Br810      Br  0.99488692  0.05571112  0.86618872    -0.01610
C811        C  0.57523207  0.38411569  0.87108237    -0.02730
C812        C  0.61956294  0.37039854  0.88074579     0.06950
C813        C  0.64234816  0.38961297  0.91477014    -0.02850
C814        C  0.62210747  0.42331057  0.93766320    -0.02850
C815        C  0.57476656  0.43344487  0.93309738     0.07080
C816        C  0.55377306  0.41641064  0.89562808    -0.03050
Br817      Br  0.50193563  0.44299853  0.86920727    -0.01590
Br818      Br  0.54467051  0.36076186  0.82185982    -0.01670
Br819      Br  0.66590930  0.46418836  0.95700726    -0.01620
Br820      Br  0.70329745  0.37109368  0.92906647    -0.01610
C821        C  0.85181247  0.39596049  0.59204488    -0.02730
C822        C  0.87507410  0.37200740  0.62277418     0.06860
C823        C  0.92086422  0.38169581  0.63102196    -0.02850
C824        C  0.94274800  0.41446295  0.60781586    -0.02850
C825        C  0.92139176  0.43492843  0.57280030     0.07080
C826        C  0.87341890  0.43029524  0.57175724    -0.03050
Br827      Br  0.83561855  0.47958314  0.56721320    -0.01590
Br828      Br  0.78928983  0.38349855  0.57853932    -0.01670
Br829      Br  0.99481354  0.43780857  0.63396309    -0.01620
Br830      Br  0.95354927  0.35256475  0.67617053    -0.01610
C831        C  0.63927211  0.08406191  0.88800089    -0.02730
C832        C  0.63115928  0.12810923  0.88526257     0.06950
C833        C  0.59473909  0.14504116  0.90960393    -0.02850
C834        C  0.56407535  0.11808779  0.93221370    -0.02850
C835        C  0.57130033  0.07297834  0.93429490     0.07080
C836        C  0.60670594  0.05726097  0.90712985    -0.03050
Br837      Br  0.59882547  0.00697608  0.87442018    -0.01590
Br838      Br  0.69329364  0.05729405  0.86369223    -0.01670
Br839      Br  0.50729731  0.14482665  0.94778572    -0.01620
Br840      Br  0.58855017  0.20607809  0.91509519    -0.01610
C841        C  0.64551846  0.41529570  0.60889591    -0.02730
C842        C  0.62781671  0.37536873  0.62239003     0.06950
C843        C  0.58763117  0.36097584  0.60295521    -0.02850
C844        C  0.56342347  0.38718584  0.57398700    -0.02850
C845        C  0.57842846  0.42964013  0.56279411     0.07080
C846        C  0.62335329  0.44013139  0.57724734    -0.03050
Br847      Br  0.65712910  0.48983080  0.55793352    -0.01590
Br848      Br  0.69885502  0.43996852  0.63554792    -0.01670
Br849      Br  0.50942036  0.36011513  0.55293101    -0.01620
Br850      Br  0.56347468  0.30455094  0.61610980    -0.01610
C851        C  0.87676877  0.09175984  0.55799717    -0.02730
C852        C  0.91901019  0.07036469  0.56714518     0.06950
C853        C  0.93897122  0.08180980  0.60713502    -0.02850
C854        C  0.92226575  0.11571326  0.63220048    -0.02850
C855        C  0.88133714  0.13531387  0.62171897     0.07080
C856        C  0.85921267  0.12424938  0.58437960    -0.03050
Br857      Br  0.80275161  0.15395958  0.57097157    -0.01590
Br858      Br  0.83264502  0.07270102  0.51905343    -0.01670
Br859      Br  0.95336342  0.13326752  0.68374140    -0.01620
Br860      Br  0.97857849  0.04556117  0.63767114    -0.01610
C861        C  0.59355914  0.05627721  0.60655401    -0.02730
C862        C  0.56859306  0.07207397  0.57037763     0.06950
C863        C  0.56693079  0.11740171  0.56791094    -0.02850
C864        C  0.59815670  0.14324928  0.59027215    -0.02850
C865        C  0.62601581  0.12623660  0.62245529     0.07080
C866        C  0.62326324  0.08230810  0.63047237    -0.03050
Br867      Br  0.65752900  0.05720728  0.67734556    -0.01590
Br868      Br  0.57899327  0.00436980  0.63555009    -0.01670
Br869      Br  0.60321640  0.20253893  0.57555486    -0.01620
Br870      Br  0.51210097  0.14645108  0.55235155    -0.01610
N871        N  0.69697397  0.83031779  0.20454595    -0.07000
N872        N  0.69002250  0.86000862  0.17559932    -0.59120
N873        N  0.66300414  0.79897698  0.30209775    -0.06680
N874        N  0.63135392  0.80760843  0.33141731    -0.61250
N875        N  0.69489333  0.82828114  0.30225685    -0.06280
N876        N  0.68548285  0.85729764  0.33140341    -0.59100
N877        N  0.66459411  0.80178135  0.20370071    -0.05960
N878        N  0.63475220  0.81243720  0.17423482    -0.61600
C879        C  0.65101838  0.84893552  0.15640017     0.95170
C880        C  0.64606479  0.84395104  0.34976454     0.94950
N881        N  0.69893547  0.67040310  0.29984088    -0.07190
N882        N  0.69390314  0.64277988  0.33133942    -0.59700
N883        N  0.66566886  0.69961419  0.20085455    -0.05310
N884        N  0.63515523  0.68971204  0.17152668    -0.60950
N885        N  0.69925587  0.67187450  0.20010516    -0.07220
N886        N  0.69257847  0.64338875  0.16988978    -0.59970
N887        N  0.66541508  0.69806802  0.30038716    -0.04950
N888        N  0.63664881  0.68908089  0.33211516    -0.61040
Mn889      Mn  0.66284286  0.74943858  0.25164163     1.18440
C890        C  0.65504480  0.65453272  0.35168263     0.97250
C891        C  0.65243893  0.65451691  0.15206594     0.97920
N892        N  0.80263717  0.82954403  0.30079737    -0.07240
N893        N  0.81194843  0.85943817  0.32858654    -0.63550
N894        N  0.83459499  0.80107185  0.20199017    -0.06040
N895        N  0.86433389  0.80900754  0.17098952    -0.64220
N896        N  0.80279030  0.83043250  0.20313322    -0.06750
N897        N  0.81050608  0.85922379  0.17319033    -0.63810
N898        N  0.83556633  0.80141744  0.29956438    -0.05640
N899        N  0.86794194  0.81210277  0.32624335    -0.64500
Mn900      Mn  0.74927574  0.83056313  0.25293848     1.10660
C901        C  0.85286548  0.84841950  0.34454002     0.98480
C902        C  0.84879146  0.84531930  0.15312948     0.98550
N903        N  0.80669565  0.67309360  0.20150500    -0.06750
N904        N  0.81649759  0.64468857  0.17200809    -0.62130
N905        N  0.83710946  0.70105267  0.30009773    -0.06070
N906        N  0.86803866  0.69195837  0.32925774    -0.58860
N907        N  0.80579345  0.67133161  0.29915973    -0.07380
N908        N  0.81482583  0.64144367  0.32746355    -0.61690
N909        N  0.83817504  0.70259070  0.20218214    -0.06370
N910        N  0.87007762  0.69515147  0.17301706    -0.58880
Mn911      Mn  0.75243297  0.67062756  0.25004404     1.20190
Mn912      Mn  0.83749239  0.75158143  0.25113657     1.10090
Cl913      Cl  0.75026418  0.75051623  0.25160931    -0.86850
C914        C  0.85579955  0.65909752  0.15437506     0.95480
C915        C  0.85338102  0.65477894  0.34642095     0.95280
C916        C  0.94846116  0.95706641  0.46956444    -0.03370
C917        C  0.94570527  0.53707967  0.46504357    -0.03370
C918        C  0.54804950  0.96264249  0.46603188    -0.03370
C919        C  0.54493563  0.54233477  0.46637478    -0.03370
C920        C  0.97292208  0.49775519  0.44997476    -0.00320
C921        C  0.52061355  0.50097374  0.44945896    -0.00320
C922        C  0.94800510  0.96109625  0.03764619    -0.03370
C923        C  0.54890011  0.96150466  0.03420771    -0.03370
C924        C  0.97631445  0.93731924  0.00401119    -0.00320
C925        C  0.52194379  0.93893889  0.00102009    -0.00320
C926        C  0.54445081  0.54219165  0.03586605    -0.03370
C927        C  0.97274946  0.50098284  0.05243798    -0.00320
C928        C  0.52071422  0.50112215  0.05232219    -0.00320
C929        C  0.57690810  0.98254934  0.99976478    -0.00320
C930        C  0.57552830  0.52472412  0.00077264    -0.00320
C931        C  0.97110464  0.56235772  0.99931790    -0.00320
C932        C  0.51657671  0.56373043  0.00062869    -0.00320
C933        C  0.94469325  0.53968989  0.03442936    -0.03370
C934        C  0.91776107  0.97720757  0.00267397    -0.00320
C935        C  0.91596657  0.51895712  0.00045463    -0.00320
C936        C  0.86058734  0.91301065  0.39147378    -0.02730
C937        C  0.87828828  0.87389124  0.37677928     0.06950
C938        C  0.91845803  0.85832172  0.39624028    -0.02850
C939        C  0.94122490  0.88311813  0.42728298    -0.02850
C940        C  0.92331817  0.92364581  0.44053092     0.07080
C941        C  0.87776188  0.93070473  0.42882317    -0.03050
Br942      Br  0.83267844  0.92534096  0.47347921    -0.01590
Br943      Br  0.80762129  0.94063319  0.36766067    -0.01670
Br944      Br  0.99401134  0.85658005  0.45123050    -0.01620
Br945      Br  0.94371983  0.80302492  0.38130675    -0.01610
C946        C  0.87366493  0.56998151  0.42863744    -0.02730
C947        C  0.92127922  0.56370506  0.42880426     0.06950
C948        C  0.94470713  0.58322629  0.39364077    -0.02850
C949        C  0.92445773  0.61652739  0.36965421    -0.02850
C950        C  0.87870762  0.62797450  0.37737917     0.07080
C951        C  0.85386466  0.60505791  0.40823983    -0.03050
Br952      Br  0.79094631  0.61918378  0.42086884    -0.01590
Br953      Br  0.83436776  0.52226774  0.43135222    -0.01670
Br954      Br  0.95855413  0.64358444  0.32363394    -0.01620
Br955      Br  0.99494885  0.55571116  0.36620126    -0.01610
C956        C  0.57524445  0.88411077  0.37109497    -0.02730
C957        C  0.61960023  0.87044436  0.38073661     0.06950
C958        C  0.64239831  0.88972153  0.41471979    -0.02850
C959        C  0.62213449  0.92341446  0.43760113    -0.02850
C960        C  0.57477474  0.93348219  0.43307005     0.07080
C961        C  0.55377417  0.91640879  0.39562603    -0.03050
Br962      Br  0.50191725  0.94296432  0.36920487    -0.01590
Br963      Br  0.54465630  0.86068867  0.32192087    -0.01670
Br964      Br  0.66589195  0.96437666  0.45686509    -0.01620
Br965      Br  0.70338923  0.87129760  0.42898177    -0.01610
C966        C  0.85182669  0.89594288  0.09202513    -0.02730
C967        C  0.87508702  0.87200182  0.12276376     0.06860
C968        C  0.92087173  0.88170287  0.13102213    -0.02850
C969        C  0.94275386  0.91446990  0.10781446    -0.02850
C970        C  0.92139874  0.93492534  0.07279218     0.07080
C971        C  0.87342719  0.93028107  0.07174010    -0.03050
Br972      Br  0.83561323  0.97956022  0.06719489    -0.01590
Br973      Br  0.78931076  0.88346385  0.07850860    -0.01670
Br974      Br  0.99482196  0.93781972  0.13395626    -0.01620
Br975      Br  0.95354973  0.85258662  0.17618442    -0.01610
C976        C  0.63930301  0.58407753  0.38803069    -0.02730
C977        C  0.63117191  0.62812141  0.38527899     0.06950
C978        C  0.59474377  0.64504549  0.40961549    -0.02850
C979        C  0.56408588  0.61808623  0.43222667    -0.02850
C980        C  0.57132562  0.57297820  0.43431929     0.07080
C981        C  0.60675013  0.55726860  0.40717115    -0.03050
Br982      Br  0.59893561  0.50693988  0.37452205    -0.01590
Br983      Br  0.69334326  0.55732615  0.36373830    -0.01670
Br984      Br  0.50729755  0.64481443  0.44778458    -0.01620
Br985      Br  0.58853529  0.70608154  0.41509912    -0.01610
C986        C  0.64553224  0.91528451  0.10886128    -0.02730
C987        C  0.62782069  0.87536709  0.12237355     0.06950
C988        C  0.58762832  0.86097821  0.10294762    -0.02850
C989        C  0.56342199  0.88718675  0.07397574    -0.02850
C990        C  0.57843474  0.92963542  0.06276979     0.07080
C991        C  0.62336840  0.94011525  0.07720724    -0.03050
Br992      Br  0.65715742  0.98979441  0.05786594    -0.01590
Br993      Br  0.69888131  0.93995265  0.13549520    -0.01670
Br994      Br  0.50941520  0.86011955  0.05292614    -0.01620
Br995      Br  0.56346280  0.80456045  0.11611797    -0.01610
C996        C  0.87675940  0.59175697  0.05798661    -0.02730
C997        C  0.91900379  0.57036766  0.06713729     0.06950
C998        C  0.93895976  0.58181452  0.10712793    -0.02850
C999        C  0.92225644  0.61572341  0.13218584    -0.02850
C1000       C  0.88132222  0.63531540  0.12170652     0.07080
C1001       C  0.85919476  0.62424137  0.08437120    -0.03050
Br1002     Br  0.80272124  0.65393378  0.07096942    -0.01590
Br1003     Br  0.83264835  0.57270092  0.01902790    -0.01670
Br1004     Br  0.95336193  0.63328888  0.18371821    -0.01620
Br1005     Br  0.97852751  0.54554672  0.13768715    -0.01610
C1006       C  0.59351949  0.55628872  0.10659681    -0.02730
C1007       C  0.56858047  0.57207697  0.07039892     0.06950
C1008       C  0.56692744  0.61740450  0.06791838    -0.02850
C1009       C  0.59814989  0.64325380  0.09028198    -0.02850
C1010       C  0.62598945  0.62624628  0.12248254     0.07080
C1011       C  0.62321297  0.58232375  0.13052293    -0.03050
Br1012     Br  0.65743078  0.55724325  0.17743886    -0.01590
Br1013     Br  0.57895125  0.50437927  0.13558800    -0.01670
Br1014     Br  0.60322338  0.70253970  0.07555269    -0.01620
Br1015     Br  0.51210261  0.64645582  0.05234821    -0.01610
N1016       N  0.69697396  0.83031779  0.70454596    -0.07000
N1017       N  0.69002250  0.86000862  0.67559933    -0.59120
N1018       N  0.66300413  0.79897698  0.80209776    -0.06680
N1019       N  0.63135391  0.80760843  0.83141732    -0.61250
N1020       N  0.69489332  0.82828114  0.80225686    -0.06280
N1021       N  0.68548284  0.85729764  0.83140342    -0.59100
N1022       N  0.66459411  0.80178135  0.70370072    -0.05960
N1023       N  0.63475219  0.81243720  0.67423483    -0.61600
C1024       C  0.65101838  0.84893553  0.65640018     0.95170
C1025       C  0.64606478  0.84395104  0.84976455     0.94950
N1026       N  0.69893547  0.67040311  0.79984090    -0.07190
N1027       N  0.69390314  0.64277990  0.83133944    -0.59700
N1028       N  0.66566886  0.69961419  0.70085456    -0.05310
N1029       N  0.63515523  0.68971204  0.67152669    -0.60950
N1030       N  0.69925587  0.67187450  0.70010518    -0.07220
N1031       N  0.69257848  0.64338874  0.66988981    -0.59970
N1032       N  0.66541507  0.69806803  0.80038718    -0.04950
N1033       N  0.63664880  0.68908089  0.83211516    -0.61040
Mn1034     Mn  0.66284286  0.74943859  0.75164164     1.18440
C1035       C  0.65504479  0.65453273  0.85168264     0.97250
C1036       C  0.65243893  0.65451691  0.65206596     0.97920
N1037       N  0.80263717  0.82954403  0.80079738    -0.07240
N1038       N  0.81194843  0.85943817  0.82858655    -0.63550
N1039       N  0.83459498  0.80107185  0.70199017    -0.06040
N1040       N  0.86433389  0.80900755  0.67098952    -0.64220
N1041       N  0.80279030  0.83043250  0.70313323    -0.06750
N1042       N  0.81050608  0.85922380  0.67319035    -0.63810
N1043       N  0.83556633  0.80141745  0.79956438    -0.05640
N1044       N  0.86794196  0.81210279  0.82624333    -0.64500
Mn1045     Mn  0.74927573  0.83056313  0.75293849     1.10660
C1046       C  0.85286549  0.84841951  0.84454002     0.98480
C1047       C  0.84879146  0.84531932  0.65312949     0.98550
N1048       N  0.80669565  0.67309359  0.70150502    -0.06750
N1049       N  0.81649759  0.64468855  0.67200813    -0.62130
N1050       N  0.83710946  0.70105268  0.80009774    -0.06070
N1051       N  0.86803866  0.69195839  0.82925775    -0.58860
N1052       N  0.80579345  0.67133162  0.79915975    -0.07380
N1053       N  0.81482584  0.64144370  0.82746358    -0.61690
N1054       N  0.83817504  0.70259070  0.70218215    -0.06370
N1055       N  0.87007761  0.69515145  0.67301707    -0.58880
Mn1056     Mn  0.75243297  0.67062756  0.75004406     1.20190
Mn1057     Mn  0.83749239  0.75158144  0.75113657     1.10090
Cl1058     Cl  0.75026418  0.75051623  0.75160932    -0.86850
C1059       C  0.85579955  0.65909750  0.65437510     0.95480
C1060       C  0.85338102  0.65477896  0.84642097     0.95280
C1061       C  0.94846116  0.95706641  0.96956443    -0.03370
C1062       C  0.94570527  0.53707968  0.96504358    -0.03370
C1063       C  0.54804950  0.96264250  0.96603188    -0.03370
C1064       C  0.54493561  0.54233478  0.96637477    -0.03370
C1065       C  0.97292208  0.49775520  0.94997477    -0.00320
C1066       C  0.52061354  0.50097375  0.94945895    -0.00320
C1067       C  0.94800511  0.96109626  0.53764619    -0.03370
C1068       C  0.54890012  0.96150467  0.53420771    -0.03370
C1069       C  0.97631446  0.93731924  0.50401119    -0.00320
C1070       C  0.52194380  0.93893889  0.50102010    -0.00320
C1071       C  0.54445082  0.54219164  0.53586606    -0.03370
C1072       C  0.97274947  0.50098284  0.55243797    -0.00320
C1073       C  0.52071423  0.50112214  0.55232220    -0.00320
C1074       C  0.57690812  0.98254934  0.49976478    -0.00320
C1075       C  0.57552831  0.52472411  0.50077265    -0.00320
C1076       C  0.97110464  0.56235771  0.49931789    -0.00320
C1077       C  0.51657673  0.56373042  0.50062870    -0.00320
C1078       C  0.94469326  0.53968990  0.53442935    -0.03370
C1079       C  0.91776108  0.97720757  0.50267397    -0.00320
C1080       C  0.91596657  0.51895712  0.50045463    -0.00320
C1081       C  0.86058741  0.91301071  0.89147369    -0.02730
C1082       C  0.87828830  0.87389125  0.87677926     0.06950
C1083       C  0.91845800  0.85832170  0.89624031    -0.02850
C1084       C  0.94122488  0.88311812  0.92728300    -0.02850
C1085       C  0.92331818  0.92364581  0.94053091     0.07080
C1086       C  0.87776191  0.93070478  0.92882310    -0.03050
Br1087     Br  0.83267843  0.92534096  0.97347910    -0.01590
Br1088     Br  0.80762149  0.94063333  0.86766044    -0.01670
Br1089     Br  0.99401132  0.85658003  0.95123052    -0.01620
Br1090     Br  0.94371973  0.80302485  0.88130687    -0.01610
C1091       C  0.87366494  0.56998155  0.92863747    -0.02730
C1092       C  0.92127922  0.56370507  0.92880427     0.06950
C1093       C  0.94470713  0.58322629  0.89364077    -0.02850
C1094       C  0.92445773  0.61652739  0.86965421    -0.02850
C1095       C  0.87870763  0.62797453  0.87737919     0.07080
C1096       C  0.85386468  0.60505796  0.90823988    -0.03050
Br1097     Br  0.79094634  0.61918387  0.92086891    -0.01590
Br1098     Br  0.83436774  0.52226779  0.93135221    -0.01670
Br1099     Br  0.95855411  0.64358441  0.82363390    -0.01620
Br1100     Br  0.99494885  0.55571116  0.86620127    -0.01610
C1101       C  0.57524444  0.88411076  0.87109499    -0.02730
C1102       C  0.61960022  0.87044436  0.88073662     0.06950
C1103       C  0.64239830  0.88972154  0.91471979    -0.02850
C1104       C  0.62213448  0.92341447  0.93760112    -0.02850
C1105       C  0.57477474  0.93348220  0.93307005     0.07080
C1106       C  0.55377416  0.91640879  0.89562603    -0.03050
Br1107     Br  0.50191725  0.94296431  0.86920487    -0.01590
Br1108     Br  0.54465628  0.86068864  0.82192090    -0.01670
Br1109     Br  0.66589194  0.96437668  0.95686509    -0.01620
Br1110     Br  0.70338923  0.87129762  0.92898177    -0.01610
C1111       C  0.85182669  0.89594294  0.59202518    -0.02730
C1112       C  0.87508702  0.87200185  0.62276378     0.06860
C1113       C  0.92087174  0.88170287  0.63102213    -0.02850
C1114       C  0.94275388  0.91446990  0.60781446    -0.02850
C1115       C  0.92139875  0.93492536  0.57279219     0.07080
C1116       C  0.87342720  0.93028113  0.57174014    -0.03050
Br1117     Br  0.83561328  0.97956030  0.56719495    -0.01590
Br1118     Br  0.78931073  0.88346396  0.57850867    -0.01670
Br1119     Br  0.99482198  0.93781971  0.63395626    -0.01620
Br1120     Br  0.95354975  0.85258659  0.67618439    -0.01610
C1121       C  0.63930298  0.58407754  0.88803068    -0.02730
C1122       C  0.63117190  0.62812142  0.88527899     0.06950
C1123       C  0.59474376  0.64504550  0.90961550    -0.02850
C1124       C  0.56408586  0.61808624  0.93222667    -0.02850
C1125       C  0.57132560  0.57297821  0.93431928     0.07080
C1126       C  0.60675010  0.55726860  0.90717113    -0.03050
Br1127     Br  0.59893555  0.50693991  0.87452200    -0.01590
Br1128     Br  0.69334323  0.55732614  0.86373828    -0.01670
Br1129     Br  0.50729753  0.64481444  0.94778457    -0.01620
Br1130     Br  0.58853529  0.70608155  0.91509913    -0.01610
C1131       C  0.64553224  0.91528452  0.60886130    -0.02730
C1132       C  0.62782069  0.87536710  0.62237356     0.06950
C1133       C  0.58762833  0.86097821  0.60294761    -0.02850
C1134       C  0.56342200  0.88718675  0.57397574    -0.02850
C1135       C  0.57843474  0.92963542  0.56276979     0.07080
C1136       C  0.62336841  0.94011525  0.57720725    -0.03050
Br1137     Br  0.65715743  0.98979440  0.55786595    -0.01590
Br1138     Br  0.69888126  0.93995269  0.63549527    -0.01670
Br1139     Br  0.50941521  0.86011955  0.55292614    -0.01620
Br1140     Br  0.56346282  0.80456044  0.61611795    -0.01610
C1141       C  0.87675940  0.59175696  0.55798662    -0.02730
C1142       C  0.91900380  0.57036766  0.56713729     0.06950
C1143       C  0.93895978  0.58181452  0.60712793    -0.02850
C1144       C  0.92225645  0.61572340  0.63218584    -0.02850
C1145       C  0.88132221  0.63531538  0.62170655     0.07080
C1146       C  0.85919474  0.62424133  0.58437123    -0.03050
Br1147     Br  0.80272117  0.65393370  0.57096951    -0.01590
Br1148     Br  0.83264839  0.57270096  0.51902785    -0.01670
Br1149     Br  0.95336195  0.63328889  0.68371820    -0.01620
Br1150     Br  0.97852755  0.54554674  0.63768713    -0.01610
C1151       C  0.59351949  0.55628872  0.60659682    -0.02730
C1152       C  0.56858048  0.57207697  0.57039893     0.06950
C1153       C  0.56692745  0.61740449  0.56791838    -0.02850
C1154       C  0.59814990  0.64325379  0.59028199    -0.02850
C1155       C  0.62598946  0.62624628  0.62248256     0.07080
C1156       C  0.62321297  0.58232375  0.63052295    -0.03050
Br1157     Br  0.65743078  0.55724324  0.67743888    -0.01590
Br1158     Br  0.57895125  0.50437927  0.63558802    -0.01670
Br1159     Br  0.60322339  0.70253970  0.57555269    -0.01620
Br1160     Br  0.51210262  0.64645581  0.55234822    -0.01610
loop_ 
_geom_bond_atom_site_label_1 
_geom_bond_atom_site_label_2 
_geom_bond_distance 
_geom_bond_site_symmetry_2 
_ccdc_geom_bond_type 
N1            N2   1.315       .  A
N1            N7   1.311       .  A
N1          Mn30   2.167       .  S
N2            C9   1.347       .  A
N3            N5   1.317       .  A
N3            N4   1.325       .  A
N3          Mn19   2.222       .  S
N4           C10   1.357       .  A
N5            N6   1.319       .  A
N5          Mn30   2.205       .  S
N6           C10   1.353       .  A
N7            N8   1.320       .  A
N7          Mn19   2.222       .  S
N8            C9   1.361       .  A
C9          C117   1.514       .  S
C10          C87   1.490       .  S
N11          N17   1.314       .  A
N11          N12   1.317       .  A
N11         Mn41   2.196       .  S
N12          C20   1.351       .  A
N13          N14   1.328       .  A
N13          N15   1.317       .  A
N13         Mn19   2.236       .  S
N14          C21   1.361       .  A
N15          N16   1.321       .  A
N15         Mn41   2.220       .  S
N16          C21   1.355       .  A
N17          N18   1.324       .  A
N17         Mn19   2.218       .  S
N18          C20   1.360       .  A
Mn19        Cl43   2.568       .  S
C20         C107   1.503       .  S
C21         C140   1.509       .  S
N22          N23   1.315       .  A
N22          N28   1.311       .  A
N22         Mn30   2.178       .  S
N23          C31   1.351       .  A
N24          N26   1.314       .  A
N24          N25   1.319       .  A
N24         Mn42   2.185       .  S
N25          C32   1.352       .  A
N26          N27   1.317       .  A
N26         Mn30   2.196       .  S
N27          C32   1.353       .  A
N28          N29   1.317       .  A
N28         Mn42   2.184       .  S
N29          C31   1.352       .  A
Mn30        Cl43   2.523       .  S
C31          C67   1.498       .  S
C32          C97   1.476       .  S
N33          N34   1.315       .  A
N33          N39   1.313       .  A
N33         Mn41   2.186       .  S
N34          C44   1.351       .  A
N35          N36   1.324       .  A
N35          N37   1.315       .  A
N35         Mn42   2.202       .  S
N36          C45   1.355       .  A
N37          N38   1.317       .  A
N37         Mn41   2.206       .  S
N38          C45   1.353       .  A
N39          N40   1.319       .  A
N39         Mn42   2.176       .  S
N40          C44   1.349       .  A
Mn41        Cl43   2.519       .  S
Mn42        Cl43   2.563       .  S
C44         C130   1.465       .  S
C45          C80   1.486       .  S
C46          C70   1.583       .  S
C46         C340   1.588       .  S
C46         C199   1.492       .  S
C46         C209   1.504       .  S
C47          C77   1.583       .  S
C47          C50   1.545   1_545  S
C47         C206   1.538       .  S
C47         C210   1.511       .  S
C48          C90   1.582       .  S
C48         C341   1.542       .  S
C48         C200   1.521       .  S
C48         C204   1.500       .  S
C49         C110   1.584       .  S
C49          C51   1.584       .  S
C49         C205   1.511       .  S
C49         C207   1.507       .  S
C50         C336   1.588       .  S
C50         C631   1.405   1_565  D
C51         C338   1.542   1_545  S
C51         C630   1.405   1_445  D
C52         C100   1.571       .  S
C52          C54   1.528       .  S
C52          C64   1.502       .  S
C52         C347   1.530       .  S
C53         C120   1.601       .  S
C53          C55   1.495       .  S
C53          C59   1.499   1_554  S
C53         C348   1.598       .  S
C54         C191   1.492   1_554  S
C54         C635   1.344       .  D
C55         C193   1.521   1_554  S
C55         C634   1.344   1_455  D
C56         C137   1.607       .  S
C56          C58   1.554       .  S
C56          C60   1.521       .  S
C56          C62   1.534       .  S
C57          C63   1.576       .  S
C57         C342   1.530   1_545  S
C57         C638   1.409       .  D
C58         C343   1.598   1_545  S
C58         C637   1.409   1_455  D
C59         C193   1.500       .  S
C59         C350   1.330   1_556  D
C60         C194   1.511   1_554  S
C60         C349   1.330   1_544  D
C61          C63   1.512   1_556  S
C61         C192   1.538       .  S
C61         C642   1.338   1_556  D
C62         C194   1.507   1_554  S
C62         C641   1.338   1_454  D
C63         C127   1.591       .  S
C63          C65   1.515       .  S
C64         C191   1.504   1_554  S
C64         C355   1.318       .  D
C65         C192   1.511   1_554  S
C65         C354   1.318   1_545  D
C66          C67   1.413       .  A
C66          C71   1.395       .  A
C66         Br73   1.936       .  S
C67          C68   1.419       .  A
C68          C69   1.422       .  A
C68         Br75   1.949       .  S
C69          C70   1.440       .  A
C69         Br74   1.918       .  S
C70          C71   1.409       .  A
C71         Br72   1.917       .  S
C76          C77   1.412       .  A
C76          C81   1.402       .  A
C76         Br83   1.899       .  S
C77          C78   1.426       .  A
C78          C79   1.420       .  A
C78         Br85   1.906       .  S
C79          C80   1.409       .  A
C79         Br84   1.936       .  S
C80          C81   1.400       .  A
C81         Br82   1.936       .  S
C86          C87   1.407       .  A
C86          C91   1.418       .  A
C86         Br93   1.937       .  S
C87          C88   1.402       .  A
C88          C89   1.409       .  A
C88         Br95   1.938       .  S
C89          C90   1.435       .  A
C89         Br94   1.927       .  S
C90          C91   1.435       .  A
C91         Br92   1.929       .  S
C96          C97   1.401       .  A
C96         C101   1.401       .  A
C96        Br103   1.931       .  S
C97          C98   1.407       .  A
C98          C99   1.410       .  A
C98        Br105   1.941       .  S
C99         C100   1.418       .  A
C99        Br104   1.894       .  S
C100        C101   1.418       .  A
C101       Br102   1.913       .  S
C106        C107   1.410       .  A
C106        C111   1.404       .  A
C106       Br113   1.943       .  S
C107        C108   1.409       .  A
C108        C109   1.419       .  A
C108       Br115   1.940       .  S
C109        C110   1.438       .  A
C109       Br114   1.925       .  S
C110        C111   1.423       .  A
C111       Br112   1.905       .  S
C116        C117   1.423       .  A
C116        C121   1.421       .  A
C116       Br123   1.948       .  S
C117        C118   1.411       .  A
C118        C119   1.418       .  A
C118       Br125   1.956       .  S
C119        C120   1.450       .  A
C119       Br124   1.927       .  S
C120        C121   1.440       .  A
C121       Br122   1.946       .  S
C126        C127   1.442       .  A
C126        C131   1.409       .  A
C126       Br133   1.889       .  S
C127        C128   1.433       .  A
C128        C129   1.410       .  A
C128       Br135   1.891       .  S
C129        C130   1.392       .  A
C129       Br134   1.942       .  S
C130        C131   1.387       .  A
C131       Br132   1.952       .  S
C136        C137   1.440       .  A
C136        C141   1.420       .  A
C136       Br143   1.913       .  S
C137        C138   1.431       .  A
C138        C139   1.420       .  A
C138       Br145   1.917       .  S
C139        C140   1.407       .  A
C139       Br144   1.928       .  S
C140        C141   1.408       .  A
C141       Br142   1.949       .  S
N146        N147   1.315       .  A
N146        N152   1.311       .  A
N146       Mn175   2.167       .  S
N147        C154   1.347       .  A
N148        N150   1.317       .  A
N148        N149   1.325       .  A
N148       Mn164   2.222       .  S
N149        C155   1.357       .  A
N150        N151   1.319       .  A
N150       Mn175   2.205       .  S
N151        C155   1.353       .  A
N152        N153   1.320       .  A
N152       Mn164   2.222       .  S
N153        C154   1.361       .  A
C154        C262   1.514       .  S
C155        C232   1.490       .  S
N156        N162   1.314       .  A
N156        N157   1.317       .  A
N156       Mn186   2.196       .  S
N157        C165   1.351       .  A
N158        N159   1.328       .  A
N158        N160   1.317       .  A
N158       Mn164   2.236       .  S
N159        C166   1.361       .  A
N160        N161   1.321       .  A
N160       Mn186   2.220       .  S
N161        C166   1.355       .  A
N162        N163   1.324       .  A
N162       Mn164   2.218       .  S
N163        C165   1.360       .  A
Mn164      Cl188   2.568       .  S
C165        C252   1.503       .  S
C166        C285   1.509       .  S
N167        N168   1.315       .  A
N167        N173   1.311       .  A
N167       Mn175   2.178       .  S
N168        C176   1.351       .  A
N169        N171   1.314       .  A
N169        N170   1.319       .  A
N169       Mn187   2.185       .  S
N170        C177   1.352       .  A
N171        N172   1.317       .  A
N171       Mn175   2.196       .  S
N172        C177   1.353       .  A
N173        N174   1.317       .  A
N173       Mn187   2.184       .  S
N174        C176   1.352       .  A
Mn175      Cl188   2.523       .  S
C176        C212   1.498       .  S
C177        C242   1.476       .  S
N178        N179   1.315       .  A
N178        N184   1.313       .  A
N178       Mn186   2.186       .  S
N179        C189   1.351       .  A
N180        N181   1.324       .  A
N180        N182   1.315       .  A
N180       Mn187   2.202       .  S
N181        C190   1.355       .  A
N182        N183   1.317       .  A
N182       Mn186   2.206       .  S
N183        C190   1.353       .  A
N184        N185   1.319       .  A
N184       Mn187   2.176       .  S
N185        C189   1.349       .  A
Mn186      Cl188   2.519       .  S
Mn187      Cl188   2.563       .  S
C189        C275   1.465       .  S
C190        C225   1.486       .  S
C191        C215   1.583       .  S
C191        C485   1.588       .  S
C192        C222   1.583       .  S
C192        C195   1.545   1_545  S
C193        C235   1.582       .  S
C193        C486   1.542       .  S
C194        C255   1.584       .  S
C194        C196   1.584       .  S
C195        C481   1.588       .  S
C195        C776   1.405   1_565  D
C196        C483   1.542   1_545  S
C196        C775   1.405   1_445  D
C197        C245   1.571       .  S
C197        C199   1.528       .  S
C197        C492   1.530       .  S
C197        C209   1.502       .  S
C198        C265   1.601       .  S
C198        C200   1.495       .  S
C198        C493   1.598       .  S
C198        C204   1.499       .  S
C199        C780   1.344       .  D
C200        C779   1.344   1_455  D
C201        C282   1.607       .  S
C201        C203   1.554       .  S
C201        C205   1.521       .  S
C201        C207   1.534       .  S
C202        C487   1.530   1_545  S
C202        C208   1.576       .  S
C202        C783   1.409       .  D
C203        C488   1.598   1_545  S
C203        C782   1.409   1_455  D
C204        C495   1.330       .  D
C205        C494   1.330   1_545  D
C206        C208   1.512       .  S
C206        C787   1.338       .  D
C207        C786   1.338   1_455  D
C208        C272   1.591       .  S
C208        C210   1.515       .  S
C209        C500   1.318       .  D
C210        C499   1.318   1_545  D
C211        C212   1.413       .  A
C211        C216   1.395       .  A
C211       Br218   1.936       .  S
C212        C213   1.419       .  A
C213        C214   1.422       .  A
C213       Br220   1.949       .  S
C214        C215   1.440       .  A
C214       Br219   1.918       .  S
C215        C216   1.409       .  A
C216       Br217   1.917       .  S
C221        C222   1.412       .  A
C221        C226   1.402       .  A
C221       Br228   1.899       .  S
C222        C223   1.426       .  A
C223        C224   1.420       .  A
C223       Br230   1.906       .  S
C224        C225   1.409       .  A
C224       Br229   1.936       .  S
C225        C226   1.400       .  A
C226       Br227   1.936       .  S
C231        C232   1.407       .  A
C231        C236   1.418       .  A
C231       Br238   1.937       .  S
C232        C233   1.402       .  A
C233        C234   1.409       .  A
C233       Br240   1.938       .  S
C234        C235   1.435       .  A
C234       Br239   1.927       .  S
C235        C236   1.435       .  A
C236       Br237   1.929       .  S
C241        C242   1.401       .  A
C241        C246   1.401       .  A
C241       Br248   1.931       .  S
C242        C243   1.407       .  A
C243        C244   1.410       .  A
C243       Br250   1.941       .  S
C244        C245   1.418       .  A
C244       Br249   1.894       .  S
C245        C246   1.418       .  A
C246       Br247   1.913       .  S
C251        C252   1.410       .  A
C251        C256   1.404       .  A
C251       Br258   1.943       .  S
C252        C253   1.409       .  A
C253        C254   1.419       .  A
C253       Br260   1.940       .  S
C254        C255   1.438       .  A
C254       Br259   1.925       .  S
C255        C256   1.423       .  A
C256       Br257   1.905       .  S
C261        C262   1.423       .  A
C261        C266   1.421       .  A
C261       Br268   1.948       .  S
C262        C263   1.411       .  A
C263        C264   1.418       .  A
C263       Br270   1.956       .  S
C264        C265   1.450       .  A
C264       Br269   1.927       .  S
C265        C266   1.440       .  A
C266       Br267   1.946       .  S
C271        C272   1.442       .  A
C271        C276   1.409       .  A
C271       Br278   1.889       .  S
C272        C273   1.433       .  A
C273        C274   1.410       .  A
C273       Br280   1.891       .  S
C274        C275   1.392       .  A
C274       Br279   1.942       .  S
C275        C276   1.387       .  A
C276       Br277   1.952       .  S
C281        C282   1.440       .  A
C281        C286   1.420       .  A
C281       Br288   1.913       .  S
C282        C283   1.431       .  A
C283        C284   1.420       .  A
C283       Br290   1.917       .  S
C284        C285   1.407       .  A
C284       Br289   1.928       .  S
C285        C286   1.408       .  A
C286       Br287   1.949       .  S
N291        N292   1.315       .  A
N291        N297   1.311       .  A
N291       Mn320   2.167       .  S
N292        C299   1.347       .  A
N293        N295   1.317       .  A
N293        N294   1.325       .  A
N293       Mn309   2.222       .  S
N294        C300   1.357       .  A
N295        N296   1.319       .  A
N295       Mn320   2.205       .  S
N296        C300   1.353       .  A
N297        N298   1.320       .  A
N297       Mn309   2.222       .  S
N298        C299   1.361       .  A
C299        C407   1.514       .  S
C300        C377   1.490       .  S
N301        N307   1.314       .  A
N301        N302   1.317       .  A
N301       Mn331   2.196       .  S
N302        C310   1.351       .  A
N303        N304   1.328       .  A
N303        N305   1.317       .  A
N303       Mn309   2.236       .  S
N304        C311   1.361       .  A
N305        N306   1.321       .  A
N305       Mn331   2.220       .  S
N306        C311   1.355       .  A
N307        N308   1.324       .  A
N307       Mn309   2.218       .  S
N308        C310   1.360       .  A
Mn309      Cl333   2.568       .  S
C310        C397   1.503       .  S
C311        C430   1.509       .  S
N312        N313   1.315       .  A
N312        N318   1.311       .  A
N312       Mn320   2.178       .  S
N313        C321   1.351       .  A
N314        N316   1.314       .  A
N314        N315   1.319       .  A
N314       Mn332   2.185       .  S
N315        C322   1.352       .  A
N316        N317   1.317       .  A
N316       Mn320   2.196       .  S
N317        C322   1.353       .  A
N318        N319   1.317       .  A
N318       Mn332   2.184       .  S
N319        C321   1.352       .  A
Mn320      Cl333   2.523       .  S
C321        C357   1.498       .  S
C322        C387   1.476       .  S
N323        N324   1.315       .  A
N323        N329   1.313       .  A
N323       Mn331   2.186       .  S
N324        C334   1.351       .  A
N325        N326   1.324       .  A
N325        N327   1.315       .  A
N325       Mn332   2.202       .  S
N326        C335   1.355       .  A
N327        N328   1.317       .  A
N327       Mn331   2.206       .  S
N328        C335   1.353       .  A
N329        N330   1.319       .  A
N329       Mn332   2.176       .  S
N330        C334   1.349       .  A
Mn331      Cl333   2.519       .  S
Mn332      Cl333   2.563       .  S
C334        C420   1.465       .  S
C335        C370   1.486       .  S
C336        C360   1.583       .  S
C336        C489   1.492       .  S
C336        C499   1.504       .  S
C337        C367   1.583       .  S
C337        C340   1.545       .  S
C337        C496   1.538       .  S
C337        C500   1.511       .  S
C338        C380   1.582       .  S
C338        C490   1.521       .  S
C338        C494   1.500       .  S
C339        C400   1.584       .  S
C339        C341   1.584       .  S
C339        C495   1.511       .  S
C339        C497   1.507       .  S
C340        C921   1.405       .  D
C341        C920   1.405   1_455  D
C342        C390   1.571       .  S
C342        C344   1.528       .  S
C342        C354   1.502       .  S
C343        C410   1.601       .  S
C343        C345   1.495       .  S
C343        C349   1.499   1_554  S
C344        C481   1.492   1_554  S
C344        C925   1.344       .  D
C345        C483   1.521   1_554  S
C345        C924   1.344   1_455  D
C346        C427   1.607       .  S
C346        C348   1.554       .  S
C346        C350   1.521       .  S
C346        C352   1.534       .  S
C347        C353   1.576       .  S
C347        C928   1.409       .  D
C348        C927   1.409   1_455  D
C349        C483   1.500       .  S
C350        C484   1.511   1_554  S
C351        C482   1.538       .  S
C351        C353   1.512   1_556  S
C351        C932   1.338   1_556  D
C352        C484   1.507   1_554  S
C352        C931   1.338   1_454  D
C353        C417   1.591       .  S
C353        C355   1.515       .  S
C354        C481   1.504   1_554  S
C355        C482   1.511   1_554  S
C356        C357   1.413       .  A
C356        C361   1.395       .  A
C356       Br363   1.936       .  S
C357        C358   1.419       .  A
C358        C359   1.422       .  A
C358       Br365   1.949       .  S
C359        C360   1.440       .  A
C359       Br364   1.918       .  S
C360        C361   1.408       .  A
C361       Br362   1.917       .  S
C366        C367   1.412       .  A
C366        C371   1.402       .  A
C366       Br373   1.899       .  S
C367        C368   1.426       .  A
C368        C369   1.420       .  A
C368       Br375   1.906       .  S
C369        C370   1.409       .  A
C369       Br374   1.936       .  S
C370        C371   1.400       .  A
C371       Br372   1.936       .  S
C376        C377   1.407       .  A
C376        C381   1.418       .  A
C376       Br383   1.937       .  S
C377        C378   1.403       .  A
C378        C379   1.409       .  A
C378       Br385   1.938       .  S
C379        C380   1.435       .  A
C379       Br384   1.927       .  S
C380        C381   1.435       .  A
C381       Br382   1.929       .  S
C386        C387   1.401       .  A
C386        C391   1.401       .  A
C386       Br393   1.931       .  S
C387        C388   1.407       .  A
C388        C389   1.410       .  A
C388       Br395   1.941       .  S
C389        C390   1.418       .  A
C389       Br394   1.894       .  S
C390        C391   1.418       .  A
C391       Br392   1.913       .  S
C396        C397   1.410       .  A
C396        C401   1.404       .  A
C396       Br403   1.943       .  S
C397        C398   1.409       .  A
C398        C399   1.419       .  A
C398       Br405   1.940       .  S
C399        C400   1.438       .  A
C399       Br404   1.925       .  S
C400        C401   1.423       .  A
C401       Br402   1.905       .  S
C406        C407   1.423       .  A
C406        C411   1.421       .  A
C406       Br413   1.948       .  S
C407        C408   1.411       .  A
C408        C409   1.418       .  A
C408       Br415   1.956       .  S
C409        C410   1.450       .  A
C409       Br414   1.927       .  S
C410        C411   1.440       .  A
C411       Br412   1.946       .  S
C416        C417   1.442       .  A
C416        C421   1.409       .  A
C416       Br423   1.889       .  S
C417        C418   1.433       .  A
C418        C419   1.410       .  A
C418       Br425   1.891       .  S
C419        C420   1.392       .  A
C419       Br424   1.942       .  S
C420        C421   1.387       .  A
C421       Br422   1.952       .  S
C426        C427   1.440       .  A
C426        C431   1.420       .  A
C426       Br433   1.913       .  S
C427        C428   1.431       .  A
C428        C429   1.420       .  A
C428       Br435   1.917       .  S
C429        C430   1.407       .  A
C429       Br434   1.928       .  S
C430        C431   1.408       .  A
C431       Br432   1.949       .  S
N436        N437   1.315       .  A
N436        N442   1.311       .  A
N436       Mn465   2.167       .  S
N437        C444   1.347       .  A
N438        N440   1.317       .  A
N438        N439   1.325       .  A
N438       Mn454   2.222       .  S
N439        C445   1.357       .  A
N440        N441   1.319       .  A
N440       Mn465   2.205       .  S
N441        C445   1.353       .  A
N442        N443   1.320       .  A
N442       Mn454   2.222       .  S
N443        C444   1.361       .  A
C444        C552   1.514       .  S
C445        C522   1.490       .  S
N446        N452   1.314       .  A
N446        N447   1.317       .  A
N446       Mn476   2.196       .  S
N447        C455   1.351       .  A
N448        N449   1.328       .  A
N448        N450   1.317       .  A
N448       Mn454   2.236       .  S
N449        C456   1.361       .  A
N450        N451   1.321       .  A
N450       Mn476   2.220       .  S
N451        C456   1.355       .  A
N452        N453   1.324       .  A
N452       Mn454   2.218       .  S
N453        C455   1.360       .  A
Mn454      Cl478   2.568       .  S
C455        C542   1.503       .  S
C456        C575   1.509       .  S
N457        N458   1.315       .  A
N457        N463   1.311       .  A
N457       Mn465   2.178       .  S
N458        C466   1.351       .  A
N459        N461   1.314       .  A
N459        N460   1.319       .  A
N459       Mn477   2.185       .  S
N460        C467   1.352       .  A
N461        N462   1.317       .  A
N461       Mn465   2.196       .  S
N462        C467   1.353       .  A
N463        N464   1.317       .  A
N463       Mn477   2.184       .  S
N464        C466   1.352       .  A
Mn465      Cl478   2.523       .  S
C466        C502   1.498       .  S
C467        C532   1.476       .  S
N468        N469   1.315       .  A
N468        N474   1.313       .  A
N468       Mn476   2.186       .  S
N469        C479   1.351       .  A
N470        N471   1.324       .  A
N470        N472   1.315       .  A
N470       Mn477   2.202       .  S
N471        C480   1.355       .  A
N472        N473   1.317       .  A
N472       Mn476   2.206       .  S
N473        C480   1.353       .  A
N474        N475   1.319       .  A
N474       Mn477   2.176       .  S
N475        C479   1.349       .  A
Mn476      Cl478   2.519       .  S
Mn477      Cl478   2.563       .  S
C479        C565   1.465       .  S
C480        C515   1.486       .  S
C481        C505   1.583       .  S
C482        C512   1.583       .  S
C482        C485   1.545       .  S
C483        C525   1.582       .  S
C484        C545   1.584       .  S
C484        C486   1.584       .  S
C485       C1066   1.405       .  D
C486       C1065   1.405   1_455  D
C487        C535   1.571       .  S
C487        C489   1.528       .  S
C487        C499   1.502       .  S
C488        C555   1.601       .  S
C488        C490   1.495       .  S
C488        C494   1.499       .  S
C489       C1070   1.344       .  D
C490       C1069   1.344   1_455  D
C491        C572   1.607       .  S
C491        C493   1.554       .  S
C491        C495   1.521       .  S
C491        C497   1.534       .  S
C492        C498   1.576       .  S
C492       C1073   1.409       .  D
C493       C1072   1.409   1_455  D
C496        C498   1.512       .  S
C496       C1077   1.338       .  D
C497       C1076   1.338   1_455  D
C498        C562   1.591       .  S
C498        C500   1.515       .  S
C501        C502   1.413       .  A
C501        C506   1.395       .  A
C501       Br508   1.936       .  S
C502        C503   1.419       .  A
C503        C504   1.422       .  A
C503       Br510   1.949       .  S
C504        C505   1.440       .  A
C504       Br509   1.918       .  S
C505        C506   1.408       .  A
C506       Br507   1.917       .  S
C511        C512   1.412       .  A
C511        C516   1.402       .  A
C511       Br518   1.899       .  S
C512        C513   1.426       .  A
C513        C514   1.420       .  A
C513       Br520   1.906       .  S
C514        C515   1.409       .  A
C514       Br519   1.936       .  S
C515        C516   1.400       .  A
C516       Br517   1.936       .  S
C521        C522   1.407       .  A
C521        C526   1.418       .  A
C521       Br528   1.937       .  S
C522        C523   1.403       .  A
C523        C524   1.409       .  A
C523       Br530   1.938       .  S
C524        C525   1.435       .  A
C524       Br529   1.927       .  S
C525        C526   1.435       .  A
C526       Br527   1.929       .  S
C531        C532   1.401       .  A
C531        C536   1.401       .  A
C531       Br538   1.931       .  S
C532        C533   1.407       .  A
C533        C534   1.410       .  A
C533       Br540   1.941       .  S
C534        C535   1.418       .  A
C534       Br539   1.894       .  S
C535        C536   1.418       .  A
C536       Br537   1.913       .  S
C541        C542   1.410       .  A
C541        C546   1.404       .  A
C541       Br548   1.943       .  S
C542        C543   1.409       .  A
C543        C544   1.419       .  A
C543       Br550   1.940       .  S
C544        C545   1.438       .  A
C544       Br549   1.925       .  S
C545        C546   1.423       .  A
C546       Br547   1.905       .  S
C551        C552   1.423       .  A
C551        C556   1.421       .  A
C551       Br558   1.948       .  S
C552        C553   1.411       .  A
C553        C554   1.418       .  A
C553       Br560   1.956       .  S
C554        C555   1.450       .  A
C554       Br559   1.927       .  S
C555        C556   1.440       .  A
C556       Br557   1.946       .  S
C561        C562   1.442       .  A
C561        C566   1.409       .  A
C561       Br568   1.889       .  S
C562        C563   1.433       .  A
C563        C564   1.410       .  A
C563       Br570   1.891       .  S
C564        C565   1.392       .  A
C564       Br569   1.942       .  S
C565        C566   1.387       .  A
C566       Br567   1.952       .  S
C571        C572   1.440       .  A
C571        C576   1.420       .  A
C571       Br578   1.913       .  S
C572        C573   1.431       .  A
C573        C574   1.420       .  A
C573       Br580   1.917       .  S
C574        C575   1.407       .  A
C574       Br579   1.928       .  S
C575        C576   1.408       .  A
C576       Br577   1.949       .  S
N581        N582   1.315       .  A
N581        N587   1.311       .  A
N581       Mn610   2.167       .  S
N582        C589   1.347       .  A
N583        N585   1.317       .  A
N583        N584   1.325       .  A
N583       Mn599   2.222       .  S
N584        C590   1.357       .  A
N585        N586   1.319       .  A
N585       Mn610   2.205       .  S
N586        C590   1.353       .  A
N587        N588   1.320       .  A
N587       Mn599   2.222       .  S
N588        C589   1.361       .  A
C589        C697   1.514       .  S
C590        C667   1.490       .  S
N591        N597   1.314       .  A
N591        N592   1.317       .  A
N591       Mn621   2.196       .  S
N592        C600   1.351       .  A
N593        N594   1.328       .  A
N593        N595   1.317       .  A
N593       Mn599   2.236       .  S
N594        C601   1.361       .  A
N595        N596   1.321       .  A
N595       Mn621   2.220       .  S
N596        C601   1.355       .  A
N597        N598   1.324       .  A
N597       Mn599   2.218       .  S
N598        C600   1.360       .  A
Mn599      Cl623   2.568       .  S
C600        C687   1.503       .  S
C601        C720   1.509       .  S
N602        N603   1.315       .  A
N602        N608   1.311       .  A
N602       Mn610   2.178       .  S
N603        C611   1.351       .  A
N604        N606   1.314       .  A
N604        N605   1.319       .  A
N604       Mn622   2.185       .  S
N605        C612   1.352       .  A
N606        N607   1.317       .  A
N606       Mn610   2.196       .  S
N607        C612   1.353       .  A
N608        N609   1.317       .  A
N608       Mn622   2.184       .  S
N609        C611   1.352       .  A
Mn610      Cl623   2.523       .  S
C611        C647   1.498       .  S
C612        C677   1.476       .  S
N613        N614   1.315       .  A
N613        N619   1.313       .  A
N613       Mn621   2.186       .  S
N614        C624   1.351       .  A
N615        N616   1.324       .  A
N615        N617   1.315       .  A
N615       Mn622   2.202       .  S
N616        C625   1.355       .  A
N617        N618   1.317       .  A
N617       Mn621   2.206       .  S
N618        C625   1.353       .  A
N619        N620   1.319       .  A
N619       Mn622   2.176       .  S
N620        C624   1.349       .  A
Mn621      Cl623   2.519       .  S
Mn622      Cl623   2.563       .  S
C624        C710   1.465       .  S
C625        C660   1.486       .  S
C626        C650   1.583       .  S
C626        C920   1.588       .  S
C626        C779   1.492       .  S
C626        C789   1.504       .  S
C627        C657   1.583       .  S
C627        C630   1.545   1_545  S
C627        C786   1.538       .  S
C627        C790   1.511       .  S
C628        C670   1.582       .  S
C628        C921   1.542       .  S
C628        C780   1.521       .  S
C628        C784   1.500       .  S
C629        C690   1.584       .  S
C629        C631   1.584       .  S
C629        C785   1.511       .  S
C629        C787   1.507       .  S
C630        C916   1.588       .  S
C631        C918   1.542   1_545  S
C632        C680   1.571       .  S
C632        C634   1.528       .  S
C632        C927   1.530       .  S
C632        C644   1.502       .  S
C633        C700   1.601       .  S
C633        C635   1.495       .  S
C633        C928   1.598       .  S
C633        C639   1.499   1_554  S
C634        C771   1.492   1_554  S
C635        C773   1.521   1_554  S
C636        C717   1.607       .  S
C636        C638   1.554       .  S
C636        C640   1.521       .  S
C636        C642   1.534       .  S
C637        C922   1.530   1_545  S
C637        C643   1.576       .  S
C638        C923   1.598   1_545  S
C639        C773   1.500       .  S
C639        C930   1.330   1_556  D
C640        C774   1.511   1_554  S
C640        C929   1.330   1_544  D
C641        C772   1.538       .  S
C641        C643   1.512   1_556  S
C642        C774   1.507   1_554  S
C643        C707   1.591       .  S
C643        C645   1.515       .  S
C644        C771   1.504   1_554  S
C644        C935   1.318       .  D
C645        C772   1.511   1_554  S
C645        C934   1.318   1_545  D
C646        C647   1.413       .  A
C646        C651   1.395       .  A
C646       Br653   1.936       .  S
C647        C648   1.419       .  A
C648        C649   1.422       .  A
C648       Br655   1.949       .  S
C649        C650   1.440       .  A
C649       Br654   1.918       .  S
C650        C651   1.409       .  A
C651       Br652   1.917       .  S
C656        C657   1.412       .  A
C656        C661   1.402       .  A
C656       Br663   1.899       .  S
C657        C658   1.426       .  A
C658        C659   1.420       .  A
C658       Br665   1.906       .  S
C659        C660   1.409       .  A
C659       Br664   1.936       .  S
C660        C661   1.400       .  A
C661       Br662   1.936       .  S
C666        C667   1.407       .  A
C666        C671   1.418       .  A
C666       Br673   1.937       .  S
C667        C668   1.402       .  A
C668        C669   1.409       .  A
C668       Br675   1.938       .  S
C669        C670   1.435       .  A
C669       Br674   1.927       .  S
C670        C671   1.435       .  A
C671       Br672   1.929       .  S
C676        C677   1.401       .  A
C676        C681   1.401       .  A
C676       Br683   1.931       .  S
C677        C678   1.407       .  A
C678        C679   1.410       .  A
C678       Br685   1.941       .  S
C679        C680   1.418       .  A
C679       Br684   1.894       .  S
C680        C681   1.418       .  A
C681       Br682   1.913       .  S
C686        C687   1.410       .  A
C686        C691   1.404       .  A
C686       Br693   1.943       .  S
C687        C688   1.409       .  A
C688        C689   1.419       .  A
C688       Br695   1.940       .  S
C689        C690   1.438       .  A
C689       Br694   1.925       .  S
C690        C691   1.423       .  A
C691       Br692   1.905       .  S
C696        C697   1.423       .  A
C696        C701   1.421       .  A
C696       Br703   1.948       .  S
C697        C698   1.411       .  A
C698        C699   1.418       .  A
C698       Br705   1.956       .  S
C699        C700   1.450       .  A
C699       Br704   1.927       .  S
C700        C701   1.440       .  A
C701       Br702   1.946       .  S
C706        C707   1.442       .  A
C706        C711   1.409       .  A
C706       Br713   1.889       .  S
C707        C708   1.433       .  A
C708        C709   1.410       .  A
C708       Br715   1.891       .  S
C709        C710   1.392       .  A
C709       Br714   1.942       .  S
C710        C711   1.387       .  A
C711       Br712   1.952       .  S
C716        C717   1.440       .  A
C716        C721   1.420       .  A
C716       Br723   1.913       .  S
C717        C718   1.431       .  A
C718        C719   1.420       .  A
C718       Br725   1.917       .  S
C719        C720   1.407       .  A
C719       Br724   1.928       .  S
C720        C721   1.408       .  A
C721       Br722   1.949       .  S
N726        N727   1.315       .  A
N726        N732   1.311       .  A
N726       Mn755   2.167       .  S
N727        C734   1.347       .  A
N728        N730   1.317       .  A
N728        N729   1.325       .  A
N728       Mn744   2.222       .  S
N729        C735   1.357       .  A
N730        N731   1.319       .  A
N730       Mn755   2.205       .  S
N731        C735   1.353       .  A
N732        N733   1.320       .  A
N732       Mn744   2.222       .  S
N733        C734   1.361       .  A
C734        C842   1.514       .  S
C735        C812   1.490       .  S
N736        N742   1.314       .  A
N736        N737   1.317       .  A
N736       Mn766   2.196       .  S
N737        C745   1.351       .  A
N738        N739   1.328       .  A
N738        N740   1.317       .  A
N738       Mn744   2.236       .  S
N739        C746   1.361       .  A
N740        N741   1.321       .  A
N740       Mn766   2.220       .  S
N741        C746   1.355       .  A
N742        N743   1.324       .  A
N742       Mn744   2.218       .  S
N743        C745   1.360       .  A
Mn744      Cl768   2.568       .  S
C745        C832   1.503       .  S
C746        C865   1.509       .  S
N747        N748   1.315       .  A
N747        N753   1.311       .  A
N747       Mn755   2.178       .  S
N748        C756   1.351       .  A
N749        N751   1.314       .  A
N749        N750   1.319       .  A
N749       Mn767   2.185       .  S
N750        C757   1.352       .  A
N751        N752   1.317       .  A
N751       Mn755   2.196       .  S
N752        C757   1.353       .  A
N753        N754   1.317       .  A
N753       Mn767   2.184       .  S
N754        C756   1.352       .  A
Mn755      Cl768   2.523       .  S
C756        C792   1.498       .  S
C757        C822   1.476       .  S
N758        N759   1.315       .  A
N758        N764   1.313       .  A
N758       Mn766   2.186       .  S
N759        C769   1.351       .  A
N760        N761   1.324       .  A
N760        N762   1.315       .  A
N760       Mn767   2.202       .  S
N761        C770   1.355       .  A
N762        N763   1.317       .  A
N762       Mn766   2.206       .  S
N763        C770   1.353       .  A
N764        N765   1.319       .  A
N764       Mn767   2.176       .  S
N765        C769   1.349       .  A
Mn766      Cl768   2.519       .  S
Mn767      Cl768   2.563       .  S
C769        C855   1.465       .  S
C770        C805   1.486       .  S
C771        C795   1.583       .  S
C771       C1065   1.588       .  S
C772        C802   1.583       .  S
C772        C775   1.545   1_545  S
C773        C815   1.582       .  S
C773       C1066   1.542       .  S
C774        C835   1.584       .  S
C774        C776   1.584       .  S
C775       C1061   1.588       .  S
C776       C1063   1.542   1_545  S
C777        C825   1.571       .  S
C777        C779   1.528       .  S
C777       C1072   1.530       .  S
C777        C789   1.502       .  S
C778        C845   1.601       .  S
C778        C780   1.495       .  S
C778       C1073   1.598       .  S
C778        C784   1.499       .  S
C781        C862   1.607       .  S
C781        C783   1.554       .  S
C781        C785   1.521       .  S
C781        C787   1.534       .  S
C782       C1067   1.530   1_545  S
C782        C788   1.576       .  S
C783       C1068   1.598   1_545  S
C784       C1075   1.330       .  D
C785       C1074   1.330   1_545  D
C786        C788   1.512       .  S
C788        C852   1.591       .  S
C788        C790   1.515       .  S
C789       C1080   1.318       .  D
C790       C1079   1.318   1_545  D
C791        C792   1.413       .  A
C791        C796   1.395       .  A
C791       Br798   1.936       .  S
C792        C793   1.419       .  A
C793        C794   1.422       .  A
C793       Br800   1.949       .  S
C794        C795   1.440       .  A
C794       Br799   1.918       .  S
C795        C796   1.409       .  A
C796       Br797   1.917       .  S
C801        C802   1.412       .  A
C801        C806   1.402       .  A
C801       Br808   1.899       .  S
C802        C803   1.426       .  A
C803        C804   1.420       .  A
C803       Br810   1.906       .  S
C804        C805   1.409       .  A
C804       Br809   1.936       .  S
C805        C806   1.400       .  A
C806       Br807   1.936       .  S
C811        C812   1.407       .  A
C811        C816   1.418       .  A
C811       Br818   1.937       .  S
C812        C813   1.402       .  A
C813        C814   1.409       .  A
C813       Br820   1.938       .  S
C814        C815   1.435       .  A
C814       Br819   1.927       .  S
C815        C816   1.435       .  A
C816       Br817   1.929       .  S
C821        C822   1.401       .  A
C821        C826   1.401       .  A
C821       Br828   1.931       .  S
C822        C823   1.407       .  A
C823        C824   1.410       .  A
C823       Br830   1.941       .  S
C824        C825   1.418       .  A
C824       Br829   1.894       .  S
C825        C826   1.418       .  A
C826       Br827   1.913       .  S
C831        C832   1.410       .  A
C831        C836   1.404       .  A
C831       Br838   1.943       .  S
C832        C833   1.409       .  A
C833        C834   1.419       .  A
C833       Br840   1.940       .  S
C834        C835   1.438       .  A
C834       Br839   1.925       .  S
C835        C836   1.423       .  A
C836       Br837   1.905       .  S
C841        C842   1.423       .  A
C841        C846   1.421       .  A
C841       Br848   1.948       .  S
C842        C843   1.411       .  A
C843        C844   1.418       .  A
C843       Br850   1.956       .  S
C844        C845   1.450       .  A
C844       Br849   1.927       .  S
C845        C846   1.440       .  A
C846       Br847   1.946       .  S
C851        C852   1.442       .  A
C851        C856   1.409       .  A
C851       Br858   1.889       .  S
C852        C853   1.433       .  A
C853        C854   1.410       .  A
C853       Br860   1.891       .  S
C854        C855   1.392       .  A
C854       Br859   1.942       .  S
C855        C856   1.387       .  A
C856       Br857   1.952       .  S
C861        C862   1.440       .  A
C861        C866   1.420       .  A
C861       Br868   1.913       .  S
C862        C863   1.431       .  A
C863        C864   1.420       .  A
C863       Br870   1.917       .  S
C864        C865   1.407       .  A
C864       Br869   1.928       .  S
C865        C866   1.408       .  A
C866       Br867   1.949       .  S
N871        N872   1.315       .  A
N871        N877   1.311       .  A
N871       Mn900   2.167       .  S
N872        C879   1.347       .  A
N873        N875   1.317       .  A
N873        N874   1.325       .  A
N873       Mn889   2.222       .  S
N874        C880   1.357       .  A
N875        N876   1.319       .  A
N875       Mn900   2.205       .  S
N876        C880   1.353       .  A
N877        N878   1.320       .  A
N877       Mn889   2.222       .  S
N878        C879   1.361       .  A
C879        C987   1.514       .  S
C880        C957   1.490       .  S
N881        N887   1.314       .  A
N881        N882   1.317       .  A
N881       Mn911   2.196       .  S
N882        C890   1.351       .  A
N883        N884   1.328       .  A
N883        N885   1.317       .  A
N883       Mn889   2.236       .  S
N884        C891   1.361       .  A
N885        N886   1.321       .  A
N885       Mn911   2.220       .  S
N886        C891   1.355       .  A
N887        N888   1.324       .  A
N887       Mn889   2.218       .  S
N888        C890   1.360       .  A
Mn889      Cl913   2.568       .  S
C890        C977   1.503       .  S
C891       C1010   1.509       .  S
N892        N893   1.315       .  A
N892        N898   1.311       .  A
N892       Mn900   2.178       .  S
N893        C901   1.351       .  A
N894        N896   1.314       .  A
N894        N895   1.319       .  A
N894       Mn912   2.185       .  S
N895        C902   1.352       .  A
N896        N897   1.317       .  A
N896       Mn900   2.196       .  S
N897        C902   1.353       .  A
N898        N899   1.317       .  A
N898       Mn912   2.184       .  S
N899        C901   1.352       .  A
Mn900      Cl913   2.523       .  S
C901        C937   1.498       .  S
C902        C967   1.476       .  S
N903        N904   1.315       .  A
N903        N909   1.313       .  A
N903       Mn911   2.186       .  S
N904        C914   1.351       .  A
N905        N906   1.324       .  A
N905        N907   1.315       .  A
N905       Mn912   2.202       .  S
N906        C915   1.355       .  A
N907        N908   1.317       .  A
N907       Mn911   2.206       .  S
N908        C915   1.353       .  A
N909        N910   1.319       .  A
N909       Mn912   2.176       .  S
N910        C914   1.349       .  A
Mn911      Cl913   2.519       .  S
Mn912      Cl913   2.563       .  S
C914       C1000   1.465       .  S
C915        C950   1.486       .  S
C916        C940   1.583       .  S
C916       C1069   1.492       .  S
C916       C1079   1.504       .  S
C917        C947   1.583       .  S
C917        C920   1.545       .  S
C917       C1076   1.538       .  S
C917       C1080   1.511       .  S
C918        C960   1.582       .  S
C918       C1070   1.521       .  S
C918       C1074   1.500       .  S
C919        C980   1.584       .  S
C919        C921   1.584       .  S
C919       C1075   1.511       .  S
C919       C1077   1.507       .  S
C922        C970   1.571       .  S
C922        C924   1.528       .  S
C922        C934   1.502       .  S
C923        C990   1.601       .  S
C923        C925   1.495       .  S
C923        C929   1.499   1_554  S
C924       C1061   1.492   1_554  S
C925       C1063   1.521   1_554  S
C926       C1007   1.607       .  S
C926        C928   1.554       .  S
C926        C930   1.521       .  S
C926        C932   1.534       .  S
C927        C933   1.576       .  S
C929       C1063   1.500       .  S
C930       C1064   1.511   1_554  S
C931       C1062   1.538       .  S
C931        C933   1.512   1_556  S
C932       C1064   1.507   1_554  S
C933        C997   1.591       .  S
C933        C935   1.515       .  S
C934       C1061   1.504   1_554  S
C935       C1062   1.511   1_554  S
C936        C937   1.413       .  A
C936        C941   1.395       .  A
C936       Br943   1.936       .  S
C937        C938   1.419       .  A
C938        C939   1.422       .  A
C938       Br945   1.949       .  S
C939        C940   1.440       .  A
C939       Br944   1.918       .  S
C940        C941   1.408       .  A
C941       Br942   1.917       .  S
C946        C947   1.412       .  A
C946        C951   1.402       .  A
C946       Br953   1.899       .  S
C947        C948   1.426       .  A
C948        C949   1.420       .  A
C948       Br955   1.906       .  S
C949        C950   1.409       .  A
C949       Br954   1.936       .  S
C950        C951   1.400       .  A
C951       Br952   1.936       .  S
C956        C957   1.407       .  A
C956        C961   1.418       .  A
C956       Br963   1.937       .  S
C957        C958   1.403       .  A
C958        C959   1.409       .  A
C958       Br965   1.938       .  S
C959        C960   1.435       .  A
C959       Br964   1.927       .  S
C960        C961   1.435       .  A
C961       Br962   1.929       .  S
C966        C967   1.401       .  A
C966        C971   1.401       .  A
C966       Br973   1.931       .  S
C967        C968   1.407       .  A
C968        C969   1.410       .  A
C968       Br975   1.941       .  S
C969        C970   1.418       .  A
C969       Br974   1.894       .  S
C970        C971   1.418       .  A
C971       Br972   1.913       .  S
C976        C977   1.410       .  A
C976        C981   1.404       .  A
C976       Br983   1.943       .  S
C977        C978   1.409       .  A
C978        C979   1.419       .  A
C978       Br985   1.940       .  S
C979        C980   1.438       .  A
C979       Br984   1.925       .  S
C980        C981   1.423       .  A
C981       Br982   1.905       .  S
C986        C987   1.423       .  A
C986        C991   1.421       .  A
C986       Br993   1.948       .  S
C987        C988   1.411       .  A
C988        C989   1.418       .  A
C988       Br995   1.956       .  S
C989        C990   1.450       .  A
C989       Br994   1.927       .  S
C990        C991   1.440       .  A
C991       Br992   1.946       .  S
C996        C997   1.442       .  A
C996       C1001   1.409       .  A
C996      Br1003   1.889       .  S
C997        C998   1.433       .  A
C998        C999   1.410       .  A
C998      Br1005   1.891       .  S
C999       C1000   1.392       .  A
C999      Br1004   1.942       .  S
C1000      C1001   1.387       .  A
C1001     Br1002   1.952       .  S
C1006      C1007   1.440       .  A
C1006      C1011   1.420       .  A
C1006     Br1013   1.913       .  S
C1007      C1008   1.431       .  A
C1008      C1009   1.420       .  A
C1008     Br1015   1.917       .  S
C1009      C1010   1.407       .  A
C1009     Br1014   1.928       .  S
C1010      C1011   1.408       .  A
C1011     Br1012   1.949       .  S
N1016      N1017   1.315       .  A
N1016      N1022   1.311       .  A
N1016     Mn1045   2.167       .  S
N1017      C1024   1.347       .  A
N1018      N1020   1.317       .  A
N1018      N1019   1.325       .  A
N1018     Mn1034   2.222       .  S
N1019      C1025   1.357       .  A
N1020      N1021   1.319       .  A
N1020     Mn1045   2.205       .  S
N1021      C1025   1.353       .  A
N1022      N1023   1.320       .  A
N1022     Mn1034   2.222       .  S
N1023      C1024   1.361       .  A
C1024      C1132   1.514       .  S
C1025      C1102   1.490       .  S
N1026      N1032   1.314       .  A
N1026      N1027   1.317       .  A
N1026     Mn1056   2.196       .  S
N1027      C1035   1.351       .  A
N1028      N1029   1.328       .  A
N1028      N1030   1.317       .  A
N1028     Mn1034   2.236       .  S
N1029      C1036   1.361       .  A
N1030      N1031   1.321       .  A
N1030     Mn1056   2.220       .  S
N1031      C1036   1.355       .  A
N1032      N1033   1.324       .  A
N1032     Mn1034   2.218       .  S
N1033      C1035   1.360       .  A
Mn1034    Cl1058   2.568       .  S
C1035      C1122   1.503       .  S
C1036      C1155   1.509       .  S
N1037      N1038   1.315       .  A
N1037      N1043   1.311       .  A
N1037     Mn1045   2.178       .  S
N1038      C1046   1.351       .  A
N1039      N1041   1.314       .  A
N1039      N1040   1.319       .  A
N1039     Mn1057   2.185       .  S
N1040      C1047   1.352       .  A
N1041      N1042   1.317       .  A
N1041     Mn1045   2.196       .  S
N1042      C1047   1.353       .  A
N1043      N1044   1.317       .  A
N1043     Mn1057   2.184       .  S
N1044      C1046   1.352       .  A
Mn1045    Cl1058   2.523       .  S
C1046      C1082   1.498       .  S
C1047      C1112   1.476       .  S
N1048      N1049   1.315       .  A
N1048      N1054   1.313       .  A
N1048     Mn1056   2.186       .  S
N1049      C1059   1.351       .  A
N1050      N1051   1.324       .  A
N1050      N1052   1.315       .  A
N1050     Mn1057   2.202       .  S
N1051      C1060   1.355       .  A
N1052      N1053   1.317       .  A
N1052     Mn1056   2.206       .  S
N1053      C1060   1.353       .  A
N1054      N1055   1.319       .  A
N1054     Mn1057   2.176       .  S
N1055      C1059   1.349       .  A
Mn1056    Cl1058   2.519       .  S
Mn1057    Cl1058   2.563       .  S
C1059      C1145   1.465       .  S
C1060      C1095   1.486       .  S
C1061      C1085   1.583       .  S
C1062      C1092   1.583       .  S
C1062      C1065   1.545       .  S
C1063      C1105   1.582       .  S
C1064      C1125   1.584       .  S
C1064      C1066   1.584       .  S
C1067      C1115   1.571       .  S
C1067      C1069   1.528       .  S
C1067      C1079   1.502       .  S
C1068      C1135   1.601       .  S
C1068      C1070   1.495       .  S
C1068      C1074   1.499       .  S
C1071      C1152   1.607       .  S
C1071      C1073   1.554       .  S
C1071      C1075   1.521       .  S
C1071      C1077   1.534       .  S
C1072      C1078   1.576       .  S
C1076      C1078   1.512       .  S
C1078      C1142   1.591       .  S
C1078      C1080   1.515       .  S
C1081      C1082   1.413       .  A
C1081      C1086   1.395       .  A
C1081     Br1088   1.936       .  S
C1082      C1083   1.419       .  A
C1083      C1084   1.422       .  A
C1083     Br1090   1.949       .  S
C1084      C1085   1.440       .  A
C1084     Br1089   1.918       .  S
C1085      C1086   1.408       .  A
C1086     Br1087   1.917       .  S
C1091      C1092   1.412       .  A
C1091      C1096   1.402       .  A
C1091     Br1098   1.899       .  S
C1092      C1093   1.426       .  A
C1093      C1094   1.420       .  A
C1093     Br1100   1.906       .  S
C1094      C1095   1.409       .  A
C1094     Br1099   1.936       .  S
C1095      C1096   1.400       .  A
C1096     Br1097   1.936       .  S
C1101      C1102   1.407       .  A
C1101      C1106   1.418       .  A
C1101     Br1108   1.937       .  S
C1102      C1103   1.403       .  A
C1103      C1104   1.409       .  A
C1103     Br1110   1.938       .  S
C1104      C1105   1.435       .  A
C1104     Br1109   1.927       .  S
C1105      C1106   1.435       .  A
C1106     Br1107   1.929       .  S
C1111      C1112   1.401       .  A
C1111      C1116   1.401       .  A
C1111     Br1118   1.931       .  S
C1112      C1113   1.407       .  A
C1113      C1114   1.410       .  A
C1113     Br1120   1.941       .  S
C1114      C1115   1.418       .  A
C1114     Br1119   1.894       .  S
C1115      C1116   1.418       .  A
C1116     Br1117   1.913       .  S
C1121      C1122   1.410       .  A
C1121      C1126   1.404       .  A
C1121     Br1128   1.943       .  S
C1122      C1123   1.409       .  A
C1123      C1124   1.419       .  A
C1123     Br1130   1.940       .  S
C1124      C1125   1.438       .  A
C1124     Br1129   1.925       .  S
C1125      C1126   1.423       .  A
C1126     Br1127   1.905       .  S
C1131      C1132   1.423       .  A
C1131      C1136   1.421       .  A
C1131     Br1138   1.948       .  S
C1132      C1133   1.411       .  A
C1133      C1134   1.418       .  A
C1133     Br1140   1.956       .  S
C1134      C1135   1.450       .  A
C1134     Br1139   1.927       .  S
C1135      C1136   1.440       .  A
C1136     Br1137   1.946       .  S
C1141      C1142   1.442       .  A
C1141      C1146   1.409       .  A
C1141     Br1148   1.889       .  S
C1142      C1143   1.433       .  A
C1143      C1144   1.410       .  A
C1143     Br1150   1.891       .  S
C1144      C1145   1.392       .  A
C1144     Br1149   1.942       .  S
C1145      C1146   1.387       .  A
C1146     Br1147   1.952       .  S
C1151      C1152   1.440       .  A
C1151      C1156   1.420       .  A
C1151     Br1158   1.913       .  S
C1152      C1153   1.431       .  A
C1153      C1154   1.420       .  A
C1153     Br1160   1.917       .  S
C1154      C1155   1.407       .  A
C1154     Br1159   1.928       .  S
C1155      C1156   1.408       .  A
C1156     Br1157   1.949       .  S
