geometry optimzed in LAMMPS
_audit_creation_date              2020-11-30 
_audit_creation_method            'lammps2cif' 
_symmetry_space_group_name_H-M    'P1' 
_symmetry_Int_Tables_number       1 
_symmetry_cell_setting            triclinic 
loop_ 
_symmetry_equiv_pos_as_xyz 
  x,y,z 
_cell_length_a                    33.26338873027713 
_cell_length_b                    33.32927505704601 
_cell_length_c                    33.46948938910845 
_cell_angle_alpha                 90.1955942359235 
_cell_angle_beta                  91.06688355449542 
_cell_angle_gamma                 90.7431535708619 
loop_ 
_atom_site_label 
_atom_site_type_symbol 
_atom_site_fract_x 
_atom_site_fract_y 
_atom_site_fract_z 
_atom_site_charge 
C1          C  0.87589235  0.26236272  0.49676597    -0.02720
C2          C  0.87666036  0.50498307  0.25791653    -0.02720
C3          C  0.87307777  0.50002809  0.74503936    -0.02720
C4          C  0.87976514  0.75708951  0.49603007    -0.02720
O5          O  0.80118025  0.50996639  0.44380450    -0.72010
O6          O  0.79272022  0.50849709  0.55761571    -0.72230
O7          O  0.79865620  0.56746092  0.50143251    -0.72090
O8          O  0.79678052  0.45116025  0.49978781    -0.72090
O9          O  0.86162958  0.45254065  0.50886730    -0.72050
O10         O  0.86352288  0.56393634  0.50504448    -0.72070
O11         O  0.85804029  0.51095727  0.56196119    -0.72010
O12         O  0.86584400  0.50652713  0.45145375    -0.72200
V13         V  0.79817322  0.50926124  0.50087586     1.35240
V14         V  0.86065229  0.50856528  0.50671003     1.35170
C15         C  0.83554240  0.50824998  0.42835348     0.77230
C16         C  0.82458291  0.50889176  0.57877864     0.77290
C17         C  0.83272006  0.58527228  0.50253378     0.77160
C18         C  0.82978049  0.43246653  0.50361815     0.77120
C19         C  0.25969450  0.88508821  0.49586111    -0.02720
C20         C  0.49376327  0.87771054  0.26150909    -0.02720
C21         C  0.50054818  0.88351392  0.73954055    -0.02720
C22         C  0.75226184  0.88533229  0.50030246    -0.02720
O23         O  0.51097193  0.80470128  0.44566787    -0.72010
O24         O  0.49922309  0.80369966  0.55736597    -0.72230
O25         O  0.44699142  0.80422387  0.49397327    -0.72090
O26         O  0.56327480  0.80762845  0.50860296    -0.72090
O27         O  0.55891482  0.87205603  0.50366763    -0.72050
O28         O  0.44890721  0.86890207  0.50049334    -0.72070
O29         O  0.50268045  0.86898375  0.55832757    -0.72010
O30         O  0.50457206  0.86961756  0.44609481    -0.72200
V31         V  0.50518746  0.80590800  0.50153277     1.35240
V32         V  0.50398502  0.86839932  0.50219279     1.35170
C33         C  0.50773602  0.83715694  0.42694306     0.77230
C34         C  0.49883118  0.83615001  0.57660583     0.77290
C35         C  0.42858007  0.83758332  0.49433251     0.77160
C36         C  0.58053341  0.84200958  0.50788440     0.77120
C37         C  0.50071958  0.26951296  0.87314407    -0.02720
C38         C  0.25303125  0.51338728  0.87972725    -0.02720
C39         C  0.74671866  0.49901551  0.87325647    -0.02720
C40         C  0.49880575  0.75267227  0.86698595    -0.02720
O41         O  0.50130604  0.56843429  0.86035161    -0.72010
O42         O  0.50411447  0.45459871  0.86122227    -0.72230
O43         O  0.55823283  0.51325603  0.85958184    -0.72090
O44         O  0.44675570  0.51005259  0.86506762    -0.72090
O45         O  0.44033081  0.51609187  0.80085144    -0.72050
O46         O  0.55595676  0.50563931  0.79506506    -0.72070
O47         O  0.49376668  0.45425401  0.79684643    -0.72010
O48         O  0.50353786  0.56711338  0.79544059    -0.72200
V49         V  0.50250747  0.51156173  0.86021635     1.35240
V50         V  0.49836267  0.51078391  0.79801983     1.35170
C51         C  0.50254141  0.58695867  0.82740815     0.77230
C52         C  0.49972263  0.43523744  0.82877676     0.77290
C53         C  0.57624486  0.50695907  0.82765066     0.77160
C54         C  0.42420294  0.51563720  0.83518667     0.77120
C55         C  0.37158083  0.00977531  0.75893141    -0.02720
C56         C  0.37835633  0.76770596  0.99849294    -0.02720
C57         C  0.37629775  0.25456817  0.99976591    -0.02720
C58         C  0.37420758  0.00953973  0.24177561    -0.02720
O59         O  0.28427906  0.01105181  0.05625104    -0.72010
O60         O  0.29621718  0.01036906  0.94211254    -0.72230
O61         O  0.28796749  0.95268464  0.99827413    -0.72090
O62         O  0.29259897  0.06872404  0.99863032    -0.72090
O63         O  0.35671336  0.06241014  0.99098783    -0.72050
O64         O  0.34844013  0.95634535  0.02313587    -0.72070
O65         O  0.35791078  0.99329340  0.95371021    -0.72010
O66         O  0.34793855  0.02641035  0.05953195    -0.72200
V67         V  0.29027797  0.01083426  0.99906223     1.35240
V68         V  0.35169769  0.00953363  0.00674149     1.35170
C69         C  0.31553874  0.01962032  0.07714977     0.77230
C70         C  0.33020079  0.00039326  0.92870476     0.77290
C71         C  0.31941196  0.93485969  0.01047096     0.77160
C72         C  0.32679772  0.08498152  0.99263064     0.77120
C73         C  0.99727597  0.63381385  0.75178684    -0.02720
C74         C  0.75525299  0.62768541  0.99777946    -0.02720
C75         C  0.24501708  0.63778471  0.01190561    -0.02720
C76         C  0.00595070  0.63531200  0.23839692    -0.02720
O77         O  0.00310910  0.71474277  0.05320479    -0.72010
O78         O  0.99720509  0.71269142  0.93925025    -0.72230
O79         O  0.94277125  0.70881819  0.99817887    -0.72090
O80         O  0.05786533  0.71765838  0.99486769    -0.72090
O81         O  0.06055792  0.65266043  0.99935528    -0.72050
O82         O  0.94831527  0.64398453  0.99492434    -0.72070
O83         O  0.00546637  0.64809366  0.94049471    -0.72010
O84         O  0.00320225  0.64949930  0.05352893    -0.72200
V85         V  0.00031863  0.71239838  0.99628741     1.35240
V86         V  0.00431634  0.64994217  0.99699318     1.35170
C87         C  0.00333309  0.68228438  0.07261936     0.77230
C88         C  0.00123855  0.67998622  0.92059394     0.77290
C89         C  0.92627281  0.67434507  0.99619372     0.77160
C90         C  0.07850520  0.68611042  0.99842904     0.77120
C91         C  0.62547193  0.75558576  0.99831757    -0.02720
C92         C  0.62304765  0.01652630  0.75245994    -0.02720
C93         C  0.62208433  0.24375882  0.00763810    -0.02720
C94         C  0.62501109  0.00441839  0.24054659    -0.02720
O95         O  0.70279754  0.99645177  0.05371013    -0.72010
O96         O  0.70859625  0.00787510  0.93915020    -0.72230
O97         O  0.70358905  0.05800604  0.00213390    -0.72090
O98         O  0.70894261  0.94404899  0.99098856    -0.72090
O99         O  0.64361503  0.94156819  0.99241565    -0.72050
O100        O  0.63926542  0.05356811  0.99029650    -0.72070
O101        O  0.64433549  0.99615748  0.93621923    -0.72010
O102        O  0.63802768  0.99889666  0.04672413    -0.72200
V103        V  0.70520711  0.00117685  0.99622491     1.35240
V104        V  0.64279326  0.99751499  0.99146073     1.35170
C105        C  0.66844727  0.99849665  0.06964162     0.77230
C106        C  0.67617247  0.00526220  0.91858438     0.77290
C107        C  0.67002193  0.07497277  0.99795237     0.77160
C108        C  0.67662940  0.92358451  0.99182107     0.77120
C109        C  0.26503667  0.50659404  0.13290983    -0.02720
C110        C  0.49991001  0.27144969  0.13383312    -0.02720
C111        C  0.50244727  0.75101722  0.13133285    -0.02720
C112        C  0.74733703  0.50650079  0.12990001    -0.02720
O113        O  0.50080623  0.56539512  0.20288311    -0.72010
O114        O  0.51283257  0.45384047  0.22042527    -0.72230
O115        O  0.56420140  0.51639055  0.21199359    -0.72090
O116        O  0.45072162  0.50356961  0.21219854    -0.72090
O117        O  0.45055590  0.49989223  0.14720278    -0.72050
O118        O  0.56357011  0.50061912  0.14883431    -0.72070
O119        O  0.50663566  0.44477527  0.15609000    -0.72010
O120        O  0.50719317  0.55544302  0.13920381    -0.72200
V121        V  0.50731572  0.50965361  0.21083127     1.35240
V122        V  0.50707069  0.50027547  0.14909865     1.35170
C123        C  0.50108284  0.57909419  0.16766810     0.77230
C124        C  0.51020655  0.43048576  0.19067962     0.77290
C125        C  0.58311017  0.50946868  0.18038699     0.77160
C126        C  0.43156650  0.50162019  0.17940771     0.77120
C127        C  0.75648665  0.37470488  0.00562423    -0.02720
C128        C  0.99720366  0.37272170  0.75921719    -0.02720
C129        C  0.24801002  0.38146221  0.00788087    -0.02720
C130        C  0.00014782  0.38010364  0.23890806    -0.02720
O131        O  0.00232126  0.29971006  0.05565504    -0.72010
O132        O  0.00327679  0.29144670  0.94277439    -0.72230
O133        O  0.06075421  0.30000505  0.00096780    -0.72090
O134        O  0.94514324  0.29282701  0.99878269    -0.72090
O135        O  0.94431361  0.35803789  0.99746529    -0.72050
O136        O  0.05526956  0.36410702  0.99185744    -0.72070
O137        O  0.99602944  0.35616850  0.93900000    -0.72010
O138        O  0.00334236  0.36482701  0.05053521    -0.72200
V139        V  0.00288402  0.29695083  0.99921195     1.35240
V140        V  0.99985534  0.35932911  0.99469910     1.35170
C141        C  0.00333699  0.33380938  0.07200953     0.77230
C142        C  0.99836545  0.32254123  0.92199076     0.77290
C143        C  0.07737218  0.33433486  0.99767052     0.77160
C144        C  0.92562077  0.32524494  0.00026177     0.77120
C145        C  0.75365292  0.02174516  0.62556500    -0.02720
C146        C  0.00935451  0.76578792  0.62720410    -0.02720
C147        C  0.01042870  0.24969333  0.62517856    -0.02720
C148        C  0.24535383  0.00850286  0.62603562    -0.02720
O149        O  0.05065100  0.00643302  0.63557067    -0.72010
O150        O  0.94002067  0.00963802  0.64113452    -0.72230
O151        O  0.99776942  0.06477966  0.63879823    -0.72090
O152        O  0.99262936  0.95166719  0.63925572    -0.72090
O153        O  0.99780307  0.95221396  0.70418702    -0.72050
O154        O  0.00135856  0.06564100  0.70379877    -0.72070
O155        O  0.94189063  0.01116710  0.70599797    -0.72010
O156        O  0.05755863  0.00867370  0.69998505    -0.72200
V157        V  0.99531354  0.00808594  0.64017272     1.35240
V158        V  0.99956130  0.00901262  0.70250181     1.35170
C159        C  0.07348591  0.00900152  0.66569819     0.77230
C160        C  0.92194255  0.01351474  0.67340316     0.77290
C161        C  0.00043150  0.08430342  0.67118838     0.77160
C162        C  0.99462200  0.93287655  0.67179883     0.77120
C163        C  0.12952954  0.26821894  0.49666824    -0.02720
C164        C  0.13025739  0.50698792  0.25496286    -0.02720
C165        C  0.12411041  0.50668140  0.74652452    -0.02720
C166        C  0.12777218  0.76240774  0.49840160    -0.02720
O167        O  0.21056228  0.51669481  0.44432063    -0.72010
O168        O  0.20085687  0.51635592  0.55854211    -0.72230
O169        O  0.20712058  0.45875709  0.50136349    -0.72090
O170        O  0.20345043  0.57449060  0.50195772    -0.72090
O171        O  0.13849203  0.56889146  0.50329489    -0.72050
O172        O  0.14387096  0.45980346  0.48490751    -0.72070
O173        O  0.13707594  0.50490725  0.54944866    -0.72010
O174        O  0.14569827  0.52327289  0.43945484    -0.72200
V175        V  0.20486896  0.51669075  0.50128895     1.35240
V176        V  0.14271452  0.51429874  0.49449058     1.35170
C177        C  0.17904802  0.51983424  0.42272679     0.77230
C178        C  0.16655456  0.50992588  0.57333472     0.77290
C179        C  0.17470356  0.43976388  0.49294260     0.77160
C180        C  0.16930750  0.59095242  0.50465431     0.77120
C181        C  0.25452041  0.13774626  0.49923691    -0.02720
C182        C  0.50307078  0.13676141  0.25561143    -0.02720
C183        C  0.49400991  0.14348541  0.73861382    -0.02720
C184        C  0.73799146  0.13890867  0.49726607    -0.02720
O185        O  0.49436877  0.22112267  0.44137474    -0.72010
O186        O  0.50074787  0.22973048  0.55499574    -0.72230
O187        O  0.55540703  0.22621150  0.49527417    -0.72090
O188        O  0.44049939  0.22365865  0.50024244    -0.72090
O189        O  0.44282826  0.15859696  0.50389795    -0.72050
O190        O  0.55523285  0.16123304  0.50117186    -0.72070
O191        O  0.50098074  0.16460163  0.55915213    -0.72010
O192        O  0.49696659  0.15662060  0.44729832    -0.72200
V193        V  0.49792037  0.22414672  0.49821193     1.35240
V194        V  0.49900827  0.16171863  0.50288053     1.35170
C195        C  0.49446057  0.18700116  0.42494127     0.77230
C196        C  0.50080605  0.19839563  0.57621155     0.77290
C197        C  0.57438472  0.19346355  0.49584996     0.77160
C198        C  0.42245088  0.19012355  0.50300448     0.77120
C199        C  0.99796931  0.76804142  0.36452186    -0.02720
C200        C  0.75585987  0.00784119  0.37052479    -0.02720
C201        C  0.24491268  0.01143392  0.36786157    -0.02720
C202        C  0.99924976  0.25578318  0.37225220    -0.02720
O203        O  0.05742859  0.01273096  0.28761317    -0.72010
O204        O  0.94300122  0.01273133  0.29386072    -0.72230
O205        O  0.00076068  0.06941162  0.29429874    -0.72090
O206        O  0.99950843  0.95533152  0.28698260    -0.72090
O207        O  0.00391512  0.95200182  0.35181782    -0.72050
O208        O  0.00616970  0.06515121  0.35901981    -0.72070
O209        O  0.94878483  0.00859065  0.35832556    -0.72010
O210        O  0.06142984  0.00831551  0.35242919    -0.72200
V211        V  0.00033336  0.01240382  0.29182039     1.35240
V212        V  0.00499546  0.00859992  0.35402814     1.35170
C213        C  0.07859394  0.01035015  0.31926839     0.77230
C214        C  0.92643010  0.01112934  0.32754636     0.77290
C215        C  0.00331789  0.08646948  0.32804766     0.77160
C216        C  0.00113823  0.93444580  0.31842623     0.77120
C217        C  0.97101033  0.19464224  0.33400097    -0.26550
C218        C  0.00557968  0.21327901  0.35199805    -0.14620
C219        C  0.04174814  0.19051672  0.35105114     0.36010
C220        C  0.03959643  0.14907064  0.34344182    -0.26000
C221        C  0.00365089  0.13028616  0.33174832    -0.15230
C222        C  0.96915392  0.15356329  0.32517529     0.37090
N223        N  0.93138167  0.13659088  0.31133272    -0.89490
H224        H  0.94385147  0.21171843  0.32942036     0.18210
H225        H  0.06661962  0.13126549  0.34552795     0.18200
N226        N  0.08069789  0.20896765  0.35363816    -0.88510
H227        H  0.91066625  0.14013047  0.33416412     0.35580
H228        H  0.93323285  0.10582690  0.30600174     0.40670
H229        H  0.08405007  0.22563749  0.32748208     0.40290
H230        H  0.10332215  0.18752408  0.35291724     0.35180
C231        C  0.14436354  0.04507503  0.31825469    -0.26550
C232        C  0.12239665  0.00909624  0.31887893    -0.14620
C233        C  0.14193560  0.97296001  0.32718778     0.36010
C234        C  0.18252867  0.97401111  0.33876081    -0.26000
C235        C  0.20341355  0.01083718  0.34523503    -0.15230
C236        C  0.18499283  0.04616791  0.33026895     0.37090
N237        N  0.20679121  0.08340505  0.32836777    -0.89490
H238        H  0.12938119  0.07280002  0.31066916     0.18210
H239        H  0.19707825  0.94581190  0.34487788     0.18200
N240        N  0.12008625  0.93544907  0.32516966    -0.88510
H241        H  0.19186566  0.10460156  0.34557170     0.35580
H242        H  0.20621136  0.09311959  0.29870200     0.40670
H243        H  0.09889047  0.93544638  0.34784166     0.40290
H244        H  0.13917372  0.91144746  0.33121122     0.35180
C245        C  0.81145425  0.00098492  0.31775019    -0.26550
C246        C  0.79973480  0.01550007  0.35564053    -0.14620
C247        C  0.83132067  0.02951598  0.38187041     0.36010
C248        C  0.87091076  0.03062823  0.36936901    -0.26000
C249        C  0.88240004  0.01411541  0.33299559    -0.15230
C250        C  0.85200509  0.99892197  0.30654259     0.37090
N251        N  0.86039113  0.97930227  0.26929477    -0.89490
H252        H  0.78945500  0.98827645  0.29709103     0.18210
H253        H  0.89354740  0.04222688  0.39027691     0.18200
N254        N  0.82467834  0.03875184  0.42300745    -0.88510
H255        H  0.84898633  0.94997427  0.27090608     0.35580
H256        H  0.89098697  0.97630089  0.26466249     0.40670
H257        H  0.84136493  0.01905312  0.44081270     0.40290
H258        H  0.83600012  0.06769739  0.42816279     0.35180
C259        C  0.03150386  0.86721821  0.31285086    -0.26550
C260        C  0.99724653  0.89061026  0.31750335    -0.14620
C261        C  0.96104492  0.87217286  0.32891580     0.36010
C262        C  0.96108816  0.83195293  0.33989460    -0.26000
C263        C  0.99682595  0.80915639  0.34171287    -0.15230
C264        C  0.03137040  0.82627075  0.32346677     0.37090
N265        N  0.06722244  0.80328011  0.31897692    -0.89490
H266        H  0.05896261  0.88137754  0.30276948     0.18210
H267        H  0.93255568  0.81929261  0.34874250     0.18200
N268        N  0.92383226  0.89358321  0.33105445    -0.88510
H269        H  0.09128983  0.82182215  0.31085219     0.35580
H270        H  0.06203754  0.78395339  0.29475300     0.40670
H271        H  0.92650087  0.92275788  0.32013042     0.40290
H272        H  0.91622463  0.89570356  0.36115917     0.35180
C273        C  0.75709424  0.08393945  0.39446908    -0.26550
C274        C  0.74540546  0.04303059  0.40159077    -0.14620
C275        C  0.73416235  0.03600750  0.44188158     0.36010
C276        C  0.74064229  0.06510126  0.47125084    -0.26000
C277        C  0.74412410  0.10624538  0.46324235    -0.15230
C278        C  0.75317640  0.11529975  0.42304730     0.37090
N279        N  0.76088346  0.15588413  0.41132874    -0.89490
H280        H  0.77406103  0.09181836  0.36863076     0.18210
H281        H  0.74127475  0.05346362  0.50073580     0.18200
N282        N  0.71583397  0.99976088  0.45507731    -0.88510
H283        H  0.74099861  0.16279279  0.38787222     0.35580
H284        H  0.79016837  0.15778283  0.40060383     0.40670
H285        H  0.68770341  0.00620747  0.46670528     0.40290
H286        H  0.73354510  0.98769846  0.47792223     0.35180
C287        C  0.67103117  0.15298736  0.45871497    -0.26550
C288        C  0.69719299  0.16107022  0.49157319    -0.14620
C289        C  0.68338484  0.18799224  0.52157155     0.36010
C290        C  0.64401756  0.20238334  0.51997482    -0.26000
C291        C  0.61764720  0.19090912  0.48911892    -0.15230
C292        C  0.63186803  0.16766256  0.45705164     0.37090
N293        N  0.60669910  0.15653331  0.42323463    -0.89490
H294        H  0.67941805  0.13338209  0.43469268     0.18210
H295        H  0.63315205  0.22012137  0.54465322     0.18200
N296        N  0.70883643  0.19963093  0.55474106    -0.88510
H297        H  0.62055872  0.16745150  0.39760119     0.35580
H298        H  0.57895681  0.17069463  0.42411854     0.40670
H299        H  0.69481381  0.19081435  0.58106751     0.40290
H300        H  0.71146114  0.23092696  0.55497368     0.35180
C301        C  0.46368784  0.18535710  0.67991215    -0.26550
C302        C  0.49786658  0.16891640  0.69910731    -0.14620
C303        C  0.53531120  0.17775019  0.68025797     0.36010
C304        C  0.53590030  0.18995607  0.64028694    -0.26000
C305        C  0.50065375  0.19979755  0.61997748    -0.15230
C306        C  0.46474115  0.20164478  0.64138507     0.37090
N307        N  0.42877569  0.21918626  0.62507727    -0.89490
H308        H  0.43436814  0.18125411  0.69196108     0.18210
H309        H  0.56427233  0.19132234  0.62485413     0.18200
N310        N  0.57305615  0.17602434  0.70102271    -0.88510
H311        H  0.40560672  0.19780976  0.62567671     0.35580
H312        H  0.43245388  0.22817901  0.59550868     0.40670
H313        H  0.58643773  0.20457656  0.70055791     0.40290
H314        H  0.59157915  0.15643024  0.68557126     0.35180
C315        C  0.50020395  0.19373479  0.31028318    -0.26550
C316        C  0.49749612  0.15227493  0.30009092    -0.14620
C317        C  0.48644301  0.12606666  0.33233224     0.36010
C318        C  0.48182713  0.14070091  0.37045171    -0.26000
C319        C  0.49137224  0.18007970  0.38111268    -0.15230
C320        C  0.49967583  0.20771290  0.35007490     0.37090
N321        N  0.50791784  0.24971799  0.35658316    -0.89490
H322        H  0.50390759  0.21647612  0.28786251     0.18210
H323        H  0.47286223  0.11914119  0.39293469     0.18200
N324        N  0.48105399  0.08351065  0.32920699    -0.88510
H325        H  0.53755974  0.25542141  0.34815996     0.35580
H326        H  0.50595867  0.25835905  0.38625311     0.40670
H327        H  0.48903994  0.07283385  0.30166870     0.40290
H328        H  0.45071818  0.07683507  0.33390789     0.35180
C329        C  0.21405592  0.05726427  0.42141893    -0.26550
C330        C  0.24637019  0.05072626  0.39559297    -0.14620
C331        C  0.27657490  0.08162750  0.39755797     0.36010
C332        C  0.28021552  0.10641279  0.43177000    -0.26000
C333        C  0.25020248  0.10867797  0.46135976    -0.15230
C334        C  0.21632810  0.08223652  0.45492874     0.37090
N335        N  0.18342915  0.07814696  0.48180539    -0.89490
H336        H  0.18522015  0.04341812  0.41539286     0.18210
H337        H  0.30667912  0.12513013  0.43313923     0.18200
N338        N  0.29838414  0.09516123  0.36340560    -0.88510
H339        H  0.19282829  0.06512885  0.50857508     0.35580
H340        H  0.16896226  0.10513332  0.48632016     0.40670
H341        H  0.28674547  0.08394214  0.33646186     0.40290
H342        H  0.32896398  0.08926158  0.36720253     0.35180
C343        C  0.35320910  0.20013702  0.47625850    -0.26550
C344        C  0.37880182  0.18622742  0.50668922    -0.14620
C345        C  0.36271023  0.16288949  0.53752644     0.36010
C346        C  0.32226404  0.15290000  0.53625545    -0.26000
C347        C  0.29733973  0.15900629  0.50192654    -0.15230
C348        C  0.31281253  0.18703088  0.47321541     0.37090
N349        N  0.29010665  0.20109623  0.43921636    -0.89490
H350        H  0.36543872  0.21875721  0.45280889     0.18210
H351        H  0.31137570  0.13901577  0.56309898     0.18200
N352        N  0.38630306  0.14788195  0.57061012    -0.88510
H353        H  0.28398664  0.23139971  0.44401954     0.35580
H354        H  0.26286448  0.18605387  0.43513531     0.40670
H355        H  0.41612772  0.15767324  0.57025684     0.40290
H356        H  0.38656225  0.11658064  0.56838757     0.35180
C357        C  0.05395569  0.80208200  0.41075123    -0.26550
C358        C  0.03458373  0.76681902  0.39594181    -0.14620
C359        C  0.04561436  0.73113162  0.41576111     0.36010
C360        C  0.07725267  0.73077459  0.44423632    -0.26000
C361        C  0.09554316  0.76582654  0.46156839    -0.15230
C362        C  0.08286812  0.80236677  0.44260368     0.37090
N363        N  0.10042972  0.84049722  0.45283847    -0.89490
H364        H  0.04552460  0.83097805  0.39905408     0.18210
H365        H  0.08624887  0.70111080  0.45173868     0.18200
N366        N  0.02473950  0.69415560  0.40737317    -0.88510
H367        H  0.07700777  0.86039221  0.45774535     0.35580
H368        H  0.11483199  0.85187352  0.42775741     0.40670
H369        H  0.01252920  0.68373774  0.43402353     0.40290
H370        H  0.04552715  0.67304112  0.39785496     0.35180
C371        C  0.11581799  0.68834690  0.51437882    -0.26550
C372        C  0.14335836  0.71761273  0.50042878    -0.14620
C373        C  0.18262672  0.70336327  0.49077834     0.36010
C374        C  0.19149958  0.66218732  0.49408946    -0.26000
C375        C  0.16313618  0.63460858  0.50805585    -0.15230
C376        C  0.12565715  0.64859414  0.52065095     0.37090
N377        N  0.09714995  0.62225282  0.53958694    -0.89490
H378        H  0.08550588  0.69705128  0.52104003     0.18210
H379        H  0.22046611  0.65163390  0.48449916     0.18200
N380        N  0.21367679  0.72922177  0.47633046    -0.88510
H381        H  0.07080088  0.63730841  0.54663681     0.35580
H382        H  0.11011482  0.61328937  0.56675790     0.40670
H383        H  0.22242346  0.71862077  0.44840627     0.40290
H384        H  0.23844086  0.72756867  0.49593823     0.35180
C385        C  0.11250923  0.51858743  0.67044305    -0.26550
C386        C  0.14051559  0.50839118  0.70140243    -0.14620
C387        C  0.18102115  0.50348389  0.68787001     0.36010
C388        C  0.18921832  0.50295219  0.64609045    -0.26000
C389        C  0.15907808  0.51005264  0.61707497    -0.15230
C390        C  0.12071907  0.51942991  0.63017960     0.37090
N391        N  0.08949845  0.53167830  0.60278526    -0.89490
H392        H  0.08298929  0.52948607  0.67676695     0.18210
H393        H  0.21957711  0.49798442  0.63619827     0.18200
N394        N  0.21445461  0.50174038  0.71533033    -0.88510
H395        H  0.08020537  0.56036446  0.61098757     0.35580
H396        H  0.06501886  0.51194137  0.60560067     0.40670
H397        H  0.21810016  0.53038501  0.72781582     0.40290
H398        H  0.24114798  0.49580656  0.70053112     0.35180
C399        C  0.15705340  0.47915610  0.36695443    -0.26550
C400        C  0.17818403  0.51331596  0.37943659    -0.14620
C401        C  0.18610835  0.54385160  0.35197875     0.36010
C402        C  0.17234914  0.53923603  0.31210752    -0.26000
C403        C  0.14899744  0.50533021  0.29880529    -0.15230
C404        C  0.13971929  0.47606929  0.32883620     0.37090
N405        N  0.10821122  0.44674129  0.32440173    -0.89490
H406        H  0.14888586  0.45679322  0.38901368     0.18210
H407        H  0.17833058  0.56330849  0.29127813     0.18200
N408        N  0.20659517  0.57996334  0.36490900    -0.88510
H409        H  0.11997164  0.41849610  0.33093743     0.35580
H410        H  0.08589122  0.45276859  0.34511892     0.40670
H411        H  0.18818708  0.59450224  0.38523453     0.40290
H412        H  0.21022012  0.59956098  0.34087912     0.35180
C413        C  0.19346603  0.17462397  0.46730241    -0.26550
C414        C  0.22296671  0.17285127  0.49812966    -0.14620
C415        C  0.22468377  0.20663179  0.52469651     0.36010
C416        C  0.19451361  0.23621391  0.52277058    -0.26000
C417        C  0.16352462  0.23611285  0.49332816    -0.15230
C418        C  0.16341664  0.20367603  0.46560022     0.37090
N419        N  0.13205024  0.19791631  0.43629230    -0.89490
H420        H  0.19261600  0.15302916  0.44331286     0.18210
H421        H  0.19527008  0.26014491  0.54476319     0.18200
N422        N  0.25780848  0.21236015  0.55256772    -0.88510
H423        H  0.11812373  0.17011152  0.44125371     0.35580
H424        H  0.14542426  0.19671753  0.40832982     0.40670
H425        H  0.25790002  0.18929181  0.57349416     0.40290
H426        H  0.25507502  0.23912360  0.56860892     0.35180
C427        C  0.07288116  0.27857262  0.39208052    -0.26550
C428        C  0.03299287  0.26999958  0.40308516    -0.14620
C429        C  0.02643562  0.27538820  0.44453493     0.36010
C430        C  0.05647667  0.26604512  0.47122056    -0.26000
C431        C  0.09737087  0.26705558  0.46136475    -0.15230
C432        C  0.10529259  0.27692101  0.42031371     0.37090
N433        N  0.14501430  0.28492246  0.40581622    -0.89490
H434        H  0.07933508  0.28461529  0.36110051     0.18210
H435        H  0.04667303  0.26765958  0.50146112     0.18200
N436        N  0.99317232  0.29621631  0.46162758    -0.88510
H437        H  0.15035265  0.26468059  0.38264640     0.35580
H438        H  0.16697067  0.27934449  0.42747484     0.40670
H439        H  0.97069424  0.30439505  0.44180305     0.40290
H440        H  0.98066044  0.27847047  0.48384078     0.35180
C441        C  0.18550642  0.32489243  0.49076082    -0.26550
C442        C  0.14467298  0.31309226  0.49632122    -0.14620
C443        C  0.11635509  0.34471881  0.50041138     0.36010
C444        C  0.12880988  0.38408353  0.50112230    -0.26000
C445        C  0.16854211  0.39577551  0.49520206    -0.15230
C446        C  0.19766941  0.36597428  0.49031939     0.37090
N447        N  0.23881150  0.37723238  0.48376077    -0.89490
H448        H  0.20806605  0.30260048  0.48554660     0.18210
H449        H  0.10571323  0.40613041  0.50617560     0.18200
N450        N  0.07412259  0.33787588  0.50500707    -0.88510
H451        H  0.25622645  0.35171233  0.47963795     0.35580
H452        H  0.24978522  0.39116284  0.50985708     0.40670
H453        H  0.06498071  0.35162493  0.53136827     0.40290
H454        H  0.05894265  0.35182440  0.48128637     0.35180
C455        C  0.27913670  0.07617001  0.53648481    -0.26550
C456        C  0.25080630  0.10777032  0.53558190    -0.14620
C457        C  0.22385580  0.10890235  0.56832234     0.36010
C458        C  0.22711745  0.08031464  0.59888653    -0.26000
C459        C  0.25284347  0.04640139  0.59758990    -0.15230
C460        C  0.28255030  0.04855143  0.56791796     0.37090
N461        N  0.31868875  0.02608001  0.57092415    -0.89490
H462        H  0.30161927  0.07486524  0.51348702     0.18210
H463        H  0.20709610  0.08418034  0.62368470     0.18200
N464        N  0.19018734  0.13515093  0.57103590    -0.88510
H465        H  0.34287044  0.04629437  0.57392423     0.35580
H466        H  0.32214398  0.01039029  0.54410005     0.40670
H467        H  0.17308539  0.13556334  0.54470568     0.40290
H468        H  0.19863466  0.16362371  0.58097922     0.35180
C469        C  0.17120832  0.01757767  0.61133906    -0.26550
C470        C  0.20105182  0.01097963  0.64117499    -0.14620
C471        C  0.18749060  0.00607372  0.68119028     0.36010
C472        C  0.14588917  0.00625870  0.68913988    -0.26000
C473        C  0.11729633  0.01276889  0.65865580    -0.15230
C474        C  0.13077436  0.02122457  0.61970278     0.37090
N475        N  0.10343684  0.03330756  0.58820119    -0.89490
H476        H  0.17987943  0.01989849  0.58036253     0.18210
H477        H  0.13595407  0.00059210  0.71927046     0.18200
N478        N  0.21477661  0.99940685  0.71390570    -0.88510
H479        H  0.11831181  0.03746077  0.56123817     0.35580
H480        H  0.09223527  0.06135650  0.59611843     0.40670
H481        H  0.20741955  0.97189638  0.72698647     0.40290
H482        H  0.21073310  0.02204184  0.73510466     0.35180
C483        C  0.10574217  0.28795876  0.56797593    -0.26550
C484        C  0.10895462  0.25859901  0.53779639    -0.14620
C485        C  0.08548783  0.22324037  0.54257696     0.36010
C486        C  0.05255669  0.22354907  0.56827088    -0.26000
C487        C  0.04542595  0.25571819  0.59495734    -0.15230
C488        C  0.07168612  0.28975475  0.59232514     0.37090
N489        N  0.06358447  0.32693430  0.61238996    -0.89490
H490        H  0.12681242  0.31287097  0.56927939     0.18210
H491        H  0.03305130  0.19729804  0.56839024     0.18200
N492        N  0.09169893  0.18877213  0.51797072    -0.88510
H493        H  0.08754484  0.34732089  0.60982715     0.35580
H494        H  0.03910597  0.34022145  0.59809605     0.40670
H495        H  0.06530984  0.18270488  0.50152975     0.40290
H496        H  0.09707306  0.16431010  0.53669702     0.35180
C497        C  0.98135588  0.19541794  0.67032544    -0.26550
C498        C  0.01482146  0.20875339  0.64795701    -0.14620
C499        C  0.04853822  0.18171390  0.64698664     0.36010
C500        C  0.04233313  0.14153499  0.65612897    -0.26000
C501        C  0.00590325  0.12761149  0.67025776    -0.15230
C502        C  0.97605621  0.15501043  0.68069131     0.37090
N503        N  0.93864680  0.14267245  0.69800524    -0.89490
H504        H  0.95620720  0.21483752  0.67500777     0.18210
H505        H  0.06662263  0.12056906  0.65187510     0.18200
N506        N  0.08982305  0.19225042  0.63935305    -0.88510
H507        H  0.93693143  0.15661965  0.72593466     0.35580
H508        H  0.93762385  0.11182167  0.70317228     0.40670
H509        H  0.09556575  0.22241669  0.63550757     0.40290
H510        H  0.09920345  0.17684199  0.61398274     0.35180
C511        C  0.05159539  0.80163863  0.57545662    -0.26550
C512        C  0.04890726  0.76890048  0.60256094    -0.14620
C513        C  0.08180819  0.74235802  0.60332471     0.36010
C514        C  0.11176684  0.74656509  0.57414050    -0.26000
C515        C  0.10673331  0.77192484  0.54009136    -0.15230
C516        C  0.08209444  0.80530823  0.54757536     0.37090
N517        N  0.09289784  0.84547651  0.53686408    -0.89490
H518        H  0.02994494  0.82561244  0.57678565     0.18210
H519        H  0.13717630  0.72670728  0.57607564     0.18200
N520        N  0.08378449  0.70962325  0.63092722    -0.88510
H521        H  0.06911465  0.85834742  0.52099294     0.35580
H522        H  0.11998339  0.84737554  0.52194752     0.40670
H523        H  0.06262972  0.68818348  0.62102674     0.40290
H524        H  0.11166895  0.69560420  0.62970434     0.35180
C525        C  0.96835728  0.82326758  0.65993081    -0.26550
C526        C  0.00618265  0.80761151  0.64960562    -0.14620
C527        C  0.04054106  0.83360558  0.65813591     0.36010
C528        C  0.03507878  0.87364075  0.66830592    -0.26000
C529        C  0.99698725  0.88943194  0.67109676    -0.15230
C530        C  0.96305623  0.86404124  0.66834121     0.37090
N531        N  0.92287761  0.87848582  0.67332668    -0.89490
H532        H  0.94188513  0.80501038  0.66095219     0.18210
H533        H  0.06123750  0.89322157  0.67196746     0.18200
N534        N  0.08147961  0.82055564  0.65595451    -0.88510
H535        H  0.90751597  0.87496541  0.64596477     0.35580
H536        H  0.92277414  0.90906196  0.68021579     0.40670
H537        H  0.09572579  0.82601602  0.68359942     0.40290
H538        H  0.09636887  0.83829531  0.63500469     0.35180
C539        C  0.75811127  0.12611419  0.57236954    -0.26550
C540        C  0.73323682  0.11757806  0.53885778    -0.14620
C541        C  0.70218690  0.08846742  0.54559319     0.36010
C542        C  0.70965521  0.05754564  0.57307714    -0.26000
C543        C  0.74304338  0.05969337  0.59956208    -0.15230
C544        C  0.75996013  0.09904367  0.60456275     0.37090
N545        N  0.77781923  0.11183253  0.64186557    -0.89490
H546        H  0.77620300  0.15330680  0.57377500     0.18210
H547        H  0.68980106  0.03151873  0.57323430     0.18200
N548        N  0.66666418  0.08638764  0.52075603    -0.88510
H549        H  0.76094524  0.13568862  0.65256686     0.35580
H550        H  0.80672485  0.12304762  0.63652869     0.40670
H551        H  0.64187082  0.08888001  0.53929025     0.40290
H552        H  0.66487272  0.05819374  0.50710970     0.35180
C553        C  0.82763656  0.04534321  0.62423147    -0.26550
C554        C  0.79671820  0.02717393  0.64638967    -0.14620
C555        C  0.80860581  0.01621703  0.68653393     0.36010
C556        C  0.84989935  0.01074311  0.69613805    -0.26000
C557        C  0.87927769  0.02361079  0.66973418    -0.15230
C558        C  0.86744153  0.04556312  0.63611077     0.37090
N559        N  0.89609165  0.06801837  0.61325222    -0.89490
H560        H  0.82183545  0.06249922  0.59790141     0.18210
H561        H  0.85901124  0.99774938  0.72445809     0.18200
N562        N  0.78055906  0.01488034  0.71849593    -0.88510
H563        H  0.88750072  0.09809141  0.61307023     0.35580
H564        H  0.89490110  0.05743369  0.58379188     0.40670
H565        H  0.76987236  0.04396238  0.72243773     0.40290
H566        H  0.79463224  0.00684011  0.74544513     0.35180
C567        C  0.99773809  0.35882500  0.31254584    -0.26550
C568        C  0.00336009  0.34707032  0.27260272    -0.14620
C569        C  0.01368446  0.30591551  0.26728683     0.36010
C570        C  0.00940677  0.27844206  0.29865250    -0.26000
C571        C  0.99746080  0.28895515  0.33789500    -0.15230
C572        C  0.99277007  0.33132198  0.34402007     0.37090
N573        N  0.98329847  0.34889413  0.38146915    -0.89490
H574        H  0.99452437  0.39047433  0.31921723     0.18210
H575        H  0.01816830  0.24832876  0.29128012     0.18200
N576        N  0.03364720  0.29082208  0.23282249    -0.88510
H577        H  0.00641635  0.34381511  0.40214016     0.35580
H578        H  0.95521754  0.33849075  0.39036883     0.40670
H579        H  0.05678342  0.31011319  0.22411498     0.40290
H580        H  0.01336494  0.28379249  0.20974661     0.35180
C581        C  0.05898776  0.47999224  0.24123964    -0.26550
C582        C  0.09971711  0.47108373  0.24668787    -0.14620
C583        C  0.10869729  0.42894411  0.24706166     0.36010
C584        C  0.07671055  0.40006283  0.24845017    -0.26000
C585        C  0.03555962  0.41131477  0.24726508    -0.15230
C586        C  0.02893743  0.45262128  0.24948486     0.37090
N587        N  0.99405007  0.46805017  0.26712586    -0.89490
H588        H  0.04854267  0.50970793  0.23573603     0.18210
H589        H  0.08417929  0.36861855  0.24869779     0.18200
N590        N  0.14896785  0.41406701  0.24976277    -0.88510
H591        H  0.00359249  0.48149716  0.29391728     0.35580
H592        H  0.98290338  0.49030421  0.24825886     0.40670
H593        H  0.17016604  0.43695854  0.25365395     0.40290
H594        H  0.15493335  0.39967464  0.22275770     0.35180
C595        C  0.03590083  0.37306330  0.17113518    -0.26550
C596        C  0.00371758  0.36182887  0.19627452    -0.14620
C597        C  0.97203127  0.33776061  0.17887758     0.36010
C598        C  0.97388007  0.32630174  0.13846796    -0.26000
C599        C  0.00624493  0.33822401  0.11505820    -0.15230
C600        C  0.03815877  0.36060896  0.13189239     0.37090
N601        N  0.07316861  0.37231812  0.10980017    -0.89490
H602        H  0.05932176  0.39382376  0.17967856     0.18210
H603        H  0.94901578  0.30976863  0.12460784     0.18200
N604        N  0.93703083  0.32710850  0.20140428    -0.88510
H605        H  0.07179991  0.40320660  0.10466978     0.35580
H606        H  0.07447344  0.35792009  0.08215513     0.40670
H607        H  0.94552909  0.30695730  0.22367656     0.40290
H608        H  0.91572799  0.31198861  0.18337466     0.35180
C609        C  0.19197106  0.32650073  0.00046839    -0.26550
C610        C  0.20323174  0.36715000  0.00806491    -0.14620
C611        C  0.17131776  0.39544886  0.01326535     0.36010
C612        C  0.13181234  0.38229156  0.01141317    -0.26000
C613        C  0.12097796  0.34254279  0.00247749    -0.15230
C614        C  0.15125538  0.31407609  0.99741418     0.37090
N615        N  0.14076602  0.27305151  0.98836310    -0.89490
H616        H  0.21457164  0.30416227  0.99546812     0.18210
H617        H  0.10894469  0.40464486  0.01606524     0.18200
N618        N  0.17691070  0.43832083  0.01818908    -0.88510
H619        H  0.16662063  0.25575775  0.98601159     0.35580
H620        H  0.12660510  0.27250509  0.96020861     0.40670
H621        H  0.20649597  0.44847457  0.01697852     0.40290
H622        H  0.16594871  0.44668024  0.04604624     0.35180
C623        C  0.03587198  0.32819342  0.71035298    -0.26550
C624        C  0.99800994  0.33921397  0.72520626    -0.14620
C625        C  0.96538728  0.31429983  0.71072710     0.36010
C626        C  0.96953339  0.29269986  0.67455294    -0.26000
C627        C  0.00770730  0.28216217  0.65972952    -0.15230
C628        C  0.04069807  0.29577743  0.68444081     0.37090
N629        N  0.07859036  0.27620334  0.68765427    -0.89490
H630        H  0.06334369  0.34127484  0.72257796     0.18210
H631        H  0.94253133  0.27928473  0.66155686     0.18200
N632        N  0.92960661  0.30612561  0.73288878    -0.88510
H633        H  0.09600386  0.28030778  0.66259857     0.35580
H634        H  0.07407517  0.24615013  0.69507911     0.40670
H635        H  0.93125240  0.31942289  0.76087883     0.40290
H636        H  0.92838198  0.27525762  0.73833844     0.35180
C637        C  0.06586086  0.45876620  0.72039213    -0.26550
C638        C  0.09612315  0.46651967  0.75003170    -0.14620
C639        C  0.09467822  0.43870156  0.78276412     0.36010
C640        C  0.06586560  0.40670568  0.78359237    -0.26000
C641        C  0.03531048  0.40120776  0.75396693    -0.15230
C642        C  0.03768290  0.42732069  0.72060840     0.37090
N643        N  0.01025332  0.42550436  0.68669595    -0.89490
H644        H  0.06031092  0.47801370  0.69621962     0.18210
H645        H  0.06497875  0.38964291  0.81077807     0.18200
N646        N  0.11859883  0.44438635  0.81814877    -0.88510
H647        H  0.99262767  0.45123086  0.68735692     0.35580
H648        H  0.99069350  0.40104291  0.68642381     0.40670
H649        H  0.13463442  0.41796927  0.82283222     0.40290
H650        H  0.09952908  0.44803487  0.84235184     0.35180
C651        C  0.96012631  0.35268832  0.82342527    -0.26550
C652        C  0.99518199  0.34978978  0.79988347    -0.14620
C653        C  0.02606796  0.32436848  0.81500559     0.36010
C654        C  0.02509444  0.31128358  0.85484492    -0.26000
C655        C  0.99286249  0.32100067  0.87897887    -0.15230
C656        C  0.95873373  0.33892991  0.86222874     0.37090
N657        N  0.92259532  0.34521532  0.88432820    -0.89490
H658        H  0.93295705  0.36677256  0.81279325     0.18210
H659        H  0.05089792  0.29613157  0.86767429     0.18200
N660        N  0.05952106  0.31333278  0.79132851    -0.88510
H661        H  0.92019012  0.37601003  0.88971677     0.35580
H662        H  0.92343449  0.33074620  0.91193379     0.40670
H663        H  0.05964676  0.28203523  0.78911584     0.40290
H664        H  0.08607007  0.32233998  0.80619339     0.35180
C665        C  0.83241873  0.37366433  0.02961239    -0.26550
C666        C  0.80088279  0.35636575  0.00578731    -0.14620
C667        C  0.81489010  0.32718378  0.97755529     0.36010
C668        C  0.85451310  0.31231983  0.97979053    -0.26000
C669        C  0.88242572  0.32777696  0.00734142    -0.15230
C670        C  0.87048248  0.35772951  0.03353928     0.37090
N671        N  0.89855226  0.37499336  0.06212434    -0.89490
H672        H  0.83045843  0.40202479  0.04421523     0.18210
H673        H  0.86464254  0.29198655  0.95682186     0.18200
N674        N  0.79238661  0.31683656  0.94244346    -0.88510
H675        H  0.88630240  0.37220465  0.09054560     0.35580
H676        H  0.90195891  0.40558757  0.05596864     0.40670
H677        H  0.78970698  0.28554346  0.94102158     0.40290
H678        H  0.80834744  0.32650495  0.91754268     0.35180
C679        C  0.72001739  0.46566098  0.07006483    -0.26550
C680        C  0.74988549  0.46881046  0.10109768    -0.14620
C681        C  0.77690127  0.43596227  0.10383779     0.36010
C682        C  0.77095810  0.40244537  0.07904120    -0.26000
C683        C  0.74838860  0.40374038  0.04277686    -0.15230
C684        C  0.71920517  0.43448798  0.04105986     0.37090
N685        N  0.68917636  0.43439809  0.00960852    -0.89490
H686        H  0.69696776  0.48825437  0.06838481     0.18210
H687        H  0.78850726  0.37642106  0.08653426     0.18200
N688        N  0.81300659  0.43554653  0.12780175    -0.88510
H689        H  0.67046816  0.45920655  0.01210277     0.35580
H690        H  0.67098262  0.40892920  0.01328278     0.40670
H691        H  0.80885197  0.41988367  0.15437642     0.40290
H692        H  0.82744194  0.46336893  0.13037921     0.35180
C693        C  0.69316589  0.53815162  0.17397577    -0.26550
C694        C  0.70635503  0.50445291  0.15214592    -0.14620
C695        C  0.68216038  0.46888432  0.15519881     0.36010
C696        C  0.64264283  0.47153095  0.16753984    -0.26000
C697        C  0.62692879  0.50786705  0.17973442    -0.15230
C698        C  0.65293232  0.54125244  0.18567369     0.37090
N699        N  0.63928080  0.57919690  0.20035963    -0.89490
H700        H  0.71287403  0.56408396  0.17773572     0.18210
H701        H  0.62352167  0.44491831  0.16622579     0.18200
N702        N  0.69720556  0.42962967  0.14745653    -0.88510
H703        H  0.65471155  0.58515472  0.22726527     0.35580
H704        H  0.60875766  0.57817104  0.20693077     0.40670
H705        H  0.67827141  0.41609746  0.12595085     0.40290
H706        H  0.69513715  0.41279024  0.17366069     0.35180
C707        C  0.47808137  0.67830981  0.11914463    -0.26550
C708        C  0.49720033  0.70624807  0.14562516    -0.14620
C709        C  0.51509288  0.68911094  0.18093276     0.36010
C710        C  0.51149644  0.64830391  0.18854822    -0.26000
C711        C  0.49556675  0.62181585  0.16016548    -0.15230
C712        C  0.47830558  0.63709099  0.12465334     0.37090
N713        N  0.46179383  0.61258614  0.09258229    -0.89490
H714        H  0.46218988  0.68757382  0.09265120     0.18210
H715        H  0.52580192  0.63662191  0.21542739     0.18200
N716        N  0.54200879  0.70953612  0.20761425    -0.88510
H717        H  0.43292994  0.62283415  0.08560026     0.35580
H718        H  0.45784263  0.58276059  0.10062880     0.40670
H719        H  0.52798841  0.73254834  0.22289804     0.40290
H720        H  0.56740651  0.71733708  0.19162533     0.35180
C721        C  0.46632773  0.18393011  0.20582886    -0.26550
C722        C  0.50257466  0.17353470  0.22579475    -0.14620
C723        C  0.53532402  0.20104827  0.22117081     0.36010
C724        C  0.53197686  0.23312894  0.19361765    -0.26000
C725        C  0.49770876  0.23882945  0.16840094    -0.15230
C726        C  0.46262867  0.21657759  0.17994838     0.37090
N727        N  0.42177590  0.22791302  0.17124841    -0.89490
H728        H  0.43857916  0.16825653  0.21172544     0.18210
H729        H  0.55757543  0.25309652  0.19060680     0.18200
N730        N  0.57277113  0.19545303  0.24268107    -0.88510
H731        H  0.40818366  0.20662669  0.15224239     0.35580
H732        H  0.41815442  0.25654276  0.15997684     0.40670
H733        H  0.56847182  0.19989425  0.27311415     0.40290
H734        H  0.59426884  0.21674768  0.23413348     0.35180
C735        C  0.47503019  0.32591119  0.18069170    -0.26550
C736        C  0.50659495  0.31140804  0.15717859    -0.14620
C737        C  0.54441460  0.33240187  0.16078349     0.36010
C738        C  0.54620846  0.37012139  0.17869921    -0.26000
C739        C  0.51203131  0.38733271  0.19415668    -0.15230
C740        C  0.47660219  0.36430378  0.19754676     0.37090
N741        N  0.44097371  0.37988926  0.21528621    -0.89490
H742        H  0.44727081  0.30927692  0.18289497     0.18210
H743        H  0.57391808  0.38755731  0.17739012     0.18200
N744        N  0.58147482  0.31619907  0.14727645    -0.88510
H745        H  0.41922157  0.38287877  0.19257117     0.35580
H746        H  0.44621554  0.40840333  0.22747537     0.40670
H747        H  0.60145749  0.31445137  0.17167903     0.40290
H748        H  0.59384678  0.33596138  0.12647854     0.35180
C749        C  0.20516964  0.50768453  0.23366522    -0.26550
C750        C  0.16424165  0.50579756  0.22188217    -0.14620
C751        C  0.15708256  0.50299020  0.17941930     0.36010
C752        C  0.18938600  0.50583046  0.15232226    -0.26000
C753        C  0.23025489  0.50805133  0.16493059    -0.15230
C754        C  0.23683239  0.51219608  0.20709121     0.37090
N755        N  0.27501259  0.52372997  0.22442770    -0.89490
H756        H  0.21451009  0.50606606  0.26445856     0.18210
H757        H  0.18248955  0.50399301  0.12058677     0.18200
N758        N  0.11802672  0.49471810  0.16218756    -0.88510
H759        H  0.28356076  0.50210562  0.24539142     0.35580
H760        H  0.27169213  0.55091328  0.23964097     0.40670
H761        H  0.09712700  0.51538483  0.17194458     0.40290
H762        H  0.10886718  0.46582090  0.17016331     0.35180
C763        C  0.23422170  0.43713574  0.11042552    -0.26550
C764        C  0.26535368  0.46587820  0.10818113    -0.14620
C765        C  0.29872922  0.45391196  0.08428931     0.36010
C766        C  0.29400536  0.42297454  0.05604137    -0.26000
C767        C  0.25693451  0.40388147  0.04907551    -0.15230
C768        C  0.23034137  0.40569655  0.08247896     0.37090
N769        N  0.20078759  0.37502572  0.09005344    -0.89490
H770        H  0.21280505  0.43775964  0.13414649     0.18210
H771        H  0.31992709  0.41391817  0.04008228     0.18200
N772        N  0.33668822  0.47486684  0.08596860    -0.88510
H773        H  0.17282027  0.38854234  0.09322359     0.35580
H774        H  0.20797163  0.36187543  0.11755148     0.40670
H775        H  0.35891043  0.45428122  0.09382427     0.40290
H776        H  0.34316136  0.48569130  0.05747890     0.35180
C777        C  0.33262744  0.54189788  0.14982317    -0.26550
C778        C  0.30680064  0.50833003  0.15409169    -0.14620
C779        C  0.32222617  0.47439227  0.17520048     0.36010
C780        C  0.36306277  0.47322222  0.18618307    -0.26000
C781        C  0.38832753  0.50560138  0.17759015    -0.15230
C782        C  0.37261733  0.54078319  0.16167330     0.37090
N783        N  0.39785549  0.57516819  0.15539453    -0.89490
H784        H  0.32370677  0.56900239  0.13511775     0.18210
H785        H  0.37534094  0.44630077  0.19941720     0.18200
N786        N  0.29692866  0.44046659  0.18377194    -0.88510
H787        H  0.38677945  0.59885124  0.17234186     0.35580
H788        H  0.39438514  0.58301728  0.12539116     0.40670
H789        H  0.29781268  0.43570091  0.21462450     0.40290
H790        H  0.30897305  0.41522464  0.17000164     0.35180
C791        C  0.68128593  0.03971358  0.28212770    -0.26550
C792        C  0.66274990  0.00319268  0.27030149    -0.14620
C793        C  0.68327642  0.96806039  0.28368832     0.36010
C794        C  0.71372654  0.97088250  0.31369431    -0.26000
C795        C  0.72552179  0.00752838  0.33252226    -0.15230
C796        C  0.71299212  0.04223287  0.31078326     0.37090
N797        N  0.73494640  0.07927303  0.31354311    -0.89490
H798        H  0.67213104  0.06709276  0.26751863     0.18210
H799        H  0.72841344  0.94338277  0.32234293     0.18200
N800        N  0.67699799  0.92936550  0.26578753    -0.88510
H801        H  0.72131873  0.10194766  0.29679021     0.35580
H802        H  0.76300406  0.07451828  0.30089187     0.40670
H803        H  0.68044753  0.93174227  0.23499148     0.40290
H804        H  0.64883140  0.91761154  0.27256359     0.35180
C805        C  0.55968453  0.09082925  0.28780450    -0.26550
C806        C  0.54391184  0.11107923  0.25366129    -0.14620
C807        C  0.56863763  0.10640351  0.21945622     0.36010
C808        C  0.59836893  0.07636069  0.21874355    -0.26000
C809        C  0.60141121  0.04569512  0.24826212    -0.15230
C810        C  0.58543557  0.05746461  0.28540838     0.37090
N811        N  0.59804914  0.03881158  0.32184206    -0.89490
H812        H  0.55269059  0.10015739  0.31751837     0.18210
H813        H  0.61771973  0.07664985  0.19323637     0.18200
N814        N  0.56443221  0.13115736  0.18471578    -0.88510
H815        H  0.57230928  0.02941017  0.33687457     0.35580
H816        H  0.61279551  0.06043374  0.33968793     0.40670
H817        H  0.59161737  0.14665766  0.18087955     0.40290
H818        H  0.56041737  0.11270996  0.15959357     0.35180
C819        C  0.67894724  0.00036324  0.18454012    -0.26550
C820        C  0.63808787  0.00452565  0.19562154    -0.14620
C821        C  0.60900613  0.00850664  0.16341537     0.36010
C822        C  0.62133322  0.00817735  0.12416066    -0.26000
C823        C  0.66114835  0.00156913  0.11340871    -0.15230
C824        C  0.69059333  0.99837574  0.14400084     0.37090
N825        N  0.73197925  0.99276316  0.13409631    -0.89490
H826        H  0.70231528  0.99797173  0.20718253     0.18210
H827        H  0.59804631  0.01195556  0.10145152     0.18200
N828        N  0.56616052  0.01199186  0.16849728    -0.88510
H829        H  0.74968515  0.98969987  0.16001713     0.35580
H830        H  0.74199706  0.01894280  0.12009750     0.40670
H831        H  0.55711305  0.01024959  0.19793959     0.40290
H832        H  0.55177575  0.98802854  0.15359215     0.35180
C833        C  0.66982581  0.29792757  0.04041057    -0.26550
C834        C  0.65892382  0.27519757  0.00625454    -0.14620
C835        C  0.68273834  0.28359777  0.97192424     0.36010
C836        C  0.71182318  0.31496537  0.97283759    -0.26000
C837        C  0.72252076  0.33898023  0.00677329    -0.15230
C838        C  0.70148813  0.32616535  0.04207619     0.37090
N839        N  0.71272701  0.33700731  0.08200667    -0.89490
H840        H  0.65487152  0.29315770  0.06827112     0.18210
H841        H  0.72563003  0.31870806  0.94491391     0.18200
N842        N  0.67805736  0.26231042  0.93441502    -0.88510
H843        H  0.70415862  0.36606364  0.08883529     0.35580
H844        H  0.74262837  0.32975939  0.08787489     0.40670
H845        H  0.65858060  0.23777649  0.93598541     0.40290
H846        H  0.70594410  0.25031437  0.92729902     0.35180
C847        C  0.56722291  0.28492269  0.04085354    -0.26550
C848        C  0.59570772  0.25443301  0.04450809    -0.14620
C849        C  0.60021213  0.23825241  0.08379798     0.36010
C850        C  0.56685680  0.23823990  0.10908966    -0.26000
C851        C  0.53513039  0.26573734  0.10357078    -0.15230
C852        C  0.53924295  0.29228323  0.07042805     0.37090
N853        N  0.51642384  0.32813318  0.06711456    -0.89490
H854        H  0.56715987  0.30480880  0.01555138     0.18210
H855        H  0.56826380  0.21797311  0.13384167     0.18200
N856        N  0.63742501  0.22224330  0.09928929    -0.88510
H857        H  0.50099455  0.32757944  0.03960031     0.35580
H858        H  0.53638291  0.35263274  0.06709571     0.40670
H859        H  0.66077458  0.22475049  0.07911070     0.40290
H860        H  0.63363185  0.19203303  0.10658125     0.35180
C861        C  0.63002829  0.12717894  0.02647476    -0.26550
C862        C  0.66424911  0.11793479  0.00535709    -0.14620
C863        C  0.68873106  0.14937481  0.99127003     0.36010
C864        C  0.67616191  0.18906926  0.99636647    -0.26000
C865        C  0.63769376  0.19900074  0.01114589    -0.15230
C866        C  0.61569155  0.16603835  0.02903607     0.37090
N867        N  0.57760079  0.16993797  0.04837700    -0.89490
H868        H  0.61227813  0.10315932  0.03950676     0.18210
H869        H  0.69722269  0.21164950  0.98724416     0.18200
N870        N  0.72517893  0.14279183  0.96989233    -0.88510
H871        H  0.58105475  0.15986215  0.07777658     0.35580
H872        H  0.55681756  0.14956558  0.03580712     0.40670
H873        H  0.73032341  0.11248878  0.96474382     0.40290
H874        H  0.74913096  0.15382299  0.98755732     0.35180
C875        C  0.69352959  0.04974562  0.66452038    -0.26550
C876        C  0.71925349  0.01695580  0.65819370    -0.14620
C877        C  0.71247447  0.98330113  0.68433268     0.36010
C878        C  0.68140158  0.98428659  0.71285995    -0.26000
C879        C  0.65626717  0.01785373  0.71873654    -0.15230
C880        C  0.66231875  0.05022167  0.69161648     0.37090
N881        N  0.63714162  0.08465323  0.68966429    -0.89490
H882        H  0.69679677  0.07755886  0.64865324     0.18210
H883        H  0.67763323  0.95830459  0.73187032     0.18200
N884        N  0.73848791  0.94908410  0.68613452    -0.88510
H885        H  0.62388999  0.08601267  0.66111647     0.35580
H886        H  0.65494789  0.11046230  0.69397470     0.40670
H887        H  0.76239904  0.95149600  0.66661650     0.40290
H888        H  0.72168082  0.92333386  0.67862509     0.35180
C889        C  0.55938890  0.04746028  0.71959707    -0.26550
C890        C  0.59254611  0.05179678  0.74579755    -0.14620
C891        C  0.59892180  0.09138138  0.76149939     0.36010
C892        C  0.56815764  0.11988285  0.75909799    -0.26000
C893        C  0.53064315  0.11247546  0.73932101    -0.15230
C894        C  0.53124327  0.07807392  0.71383429     0.37090
N895        N  0.50725563  0.07602099  0.67828277    -0.89490
H896        H  0.55667675  0.02181596  0.70019629     0.18210
H897        H  0.57618188  0.14948989  0.76991345     0.18200
N898        N  0.63700438  0.10343197  0.77886204    -0.88510
H899        H  0.49156782  0.04865586  0.67812143     0.35580
H900        H  0.52637745  0.07609339  0.65382335     0.40670
H901        H  0.63216013  0.11350063  0.80798638     0.40290
H902        H  0.64810395  0.12786319  0.76276872     0.35180
C903        C  0.63454113  0.03454562  0.86705293    -0.26550
C904        C  0.67128136  0.01646379  0.87607723    -0.14620
C905        C  0.69626049  0.00536035  0.84443933     0.36010
C906        C  0.68188019  0.00971436  0.80483213    -0.26000
C907        C  0.64171356  0.02127862  0.79567971    -0.15230
C908        C  0.61780846  0.03393126  0.82876187     0.37090
N909        N  0.57585234  0.04426864  0.82446260    -0.89490
H910        H  0.61617067  0.04524362  0.89122607     0.18210
H911        H  0.70234058  0.00153357  0.78185468     0.19640
N912        N  0.73506181  0.98774889  0.85075442    -0.88510
H913        H  0.56370625  0.05372912  0.85144278     0.35580
H914        H  0.55903930  0.01921450  0.81526486     0.40670
H915        H  0.74225973  0.98488814  0.88099994     0.40290
H916        H  0.75649078  0.00729077  0.83878467     0.35180
C917        C  0.60662585  0.75974719  0.07483843    -0.26550
C918        C  0.59682117  0.74683776  0.03542378    -0.14620
C919        C  0.55837519  0.72735510  0.03194935     0.36010
C920        C  0.53199485  0.72706177  0.06413042    -0.26000
C921        C  0.53857807  0.74910434  0.10008026    -0.15230
C922        C  0.57508573  0.77155314  0.10058466     0.37090
N923        N  0.57351875  0.81333241  0.11103525    -0.89490
H924        H  0.63663793  0.77133340  0.08111046     0.18210
H925        H  0.50351440  0.71346919  0.05722407     0.18200
N926        N  0.54558849  0.70566365  0.99679953    -0.88510
H927        H  0.60268155  0.82508045  0.11460136     0.35580
H928        H  0.55998145  0.82888593  0.08745602     0.40670
H929        H  0.51991896  0.71866635  0.98486744     0.40290
H930        H  0.53737109  0.67645471  0.00495877     0.35180
C931        C  0.63813153  0.82736208  0.02874544    -0.26550
C932        C  0.64609664  0.79885242  0.99880021    -0.14620
C933        C  0.66814736  0.81385570  0.96539721     0.36010
C934        C  0.68254210  0.85397418  0.96484403    -0.26000
C935        C  0.67526502  0.88000651  0.99671826    -0.15230
C936        C  0.65406170  0.86589467  0.02941849     0.37090
N937        N  0.64453853  0.89244606  0.06172551    -0.89490
H938        H  0.61386084  0.82378970  0.04823421     0.18210
H939        H  0.69686685  0.86543777  0.93832655     0.18200
N940        N  0.67382317  0.78917593  0.93084896    -0.88510
H941        H  0.65506477  0.87970812  0.08837220     0.35580
H942        H  0.61325614  0.89460495  0.06323452     0.40670
H943        H  0.70464504  0.78786699  0.92548961     0.40290
H944        H  0.66004504  0.80311649  0.90633064     0.35180
C945        C  0.97250429  0.69481593  0.27406334    -0.26550
C946        C  0.00663269  0.67011152  0.27138074    -0.14620
C947        C  0.04067464  0.68363836  0.29531998     0.36010
C948        C  0.03643641  0.71388316  0.32438321    -0.26000
C949        C  0.00040863  0.73485397  0.33048095    -0.15230
C950        C  0.96971093  0.72734408  0.30077060     0.37090
N951        N  0.93575093  0.75277152  0.29483786    -0.89490
H952        H  0.94756569  0.69019825  0.25367040     0.18210
H953        H  0.06341544  0.72255160  0.34087654     0.18200
N954        N  0.08140298  0.67217056  0.28861102    -0.88510
H955        H  0.94567060  0.78042955  0.28409855     0.35580
H956        H  0.91985255  0.75631748  0.32104002     0.40670
H957        H  0.08844316  0.67287607  0.25840903     0.40290
H958        H  0.08842055  0.64534793  0.30279285     0.35180
C959        C  0.04883009  0.58705142  0.27824478    -0.26550
C960        C  0.04516340  0.60902751  0.24243615    -0.14620
C961        C  0.07583946  0.60215301  0.21369169     0.36010
C962        C  0.10705573  0.57457898  0.22156006    -0.26000
C963        C  0.10648480  0.54833830  0.25448910    -0.15230
C964        C  0.07821406  0.55789760  0.28478072     0.37090
N965        N  0.07701223  0.53637360  0.32168324    -0.89490
H966        H  0.02735119  0.59187138  0.30169895     0.18210
H967        H  0.12968573  0.57167397  0.19914319     0.18200
N968        N  0.07442928  0.61939464  0.17473612    -0.88510
H969        H  0.04840022  0.52367839  0.32478982     0.35580
H970        H  0.08169505  0.55691987  0.34503979     0.40670
H971        H  0.07271822  0.59622104  0.15360116     0.40290
H972        H  0.10130227  0.63531138  0.17044468     0.35180
C973        C  0.02917003  0.68444791  0.18379713    -0.26550
C974        C  0.99893711  0.65792237  0.19757037    -0.14620
C975        C  0.96331748  0.65498199  0.17226496     0.36010
C976        C  0.96609532  0.66421800  0.13185757    -0.26000
C977        C  0.00064677  0.68157424  0.11642202    -0.15230
C978        C  0.03146071  0.69490495  0.14309076     0.37090
N979        N  0.06685127  0.71573356  0.12980101    -0.89490
H980        H  0.05412308  0.69272550  0.20335036     0.18210
H981        H  0.94054731  0.65783211  0.11209484     0.18200
N982        N  0.92342535  0.64498863  0.18518050    -0.88510
H983        H  0.06746684  0.74400747  0.14342627     0.35580
H984        H  0.06579923  0.72063285  0.09903485     0.40670
H985        H  0.91933504  0.64685868  0.21569469     0.40290
H986        H  0.91481544  0.61673752  0.17415005     0.35180
C987        C  0.25647434  0.61569430  0.08740593    -0.26550
C988        C  0.26010387  0.60854601  0.04614201    -0.14620
C989        C  0.27743181  0.57128614  0.03705855     0.36010
C990        C  0.27191691  0.53884517  0.06248336    -0.26000
C991        C  0.26059366  0.54314028  0.10281226    -0.15230
C992        C  0.25373218  0.58361184  0.11533915     0.37090
N993        N  0.24381315  0.59246943  0.15602967    -0.89490
H994        H  0.25183838  0.64562693  0.09801138     0.18210
H995        H  0.27745967  0.51069949  0.04868611     0.18200
N996        N  0.30158020  0.56609476  0.00236483    -0.88510
H997        H  0.23658829  0.62271343  0.15934121     0.35580
H998        H  0.26937149  0.58802057  0.17388767     0.40670
H999        H  0.29082530  0.54107929  0.98638356     0.40290
H1000       H  0.33075159  0.55940578  0.01215508     0.35180
C1001       C  0.19010873  0.68144118  0.98217147    -0.26550
C1002       C  0.20241814  0.65770997  0.01547983    -0.14620
C1003       C  0.17319756  0.65278350  0.04637230     0.36010
C1004       C  0.13449401  0.66782126  0.04121428    -0.26000
C1005       C  0.12208165  0.68627350  0.00606016    -0.15230
C1006       C  0.15034536  0.69464159  0.97680004     0.37090
N1007       N  0.13849044  0.71459187  0.94076690    -0.89490
H1008       H  0.21113989  0.68791965  0.95870096     0.18210
H1009       H  0.11248209  0.66168828  0.06404637     0.18200
N1010       N  0.17999441  0.63091729  0.08235335    -0.88510
H1011       H  0.14542096  0.69596470  0.91674199     0.35580
H1012       H  0.15600039  0.74072250  0.93844768     0.40670
H1013       H  0.15878395  0.60755351  0.08408099     0.40290
H1014       H  0.17560073  0.65020839  0.10656481     0.35180
C1015       C  0.68228647  0.65164691  0.99679094    -0.26550
C1016       C  0.72328724  0.66220012  0.99514873    -0.14620
C1017       C  0.73146658  0.70373625  0.98965057     0.36010
C1018       C  0.70104675  0.73226906  0.99517668    -0.26000
C1019       C  0.65952786  0.72202707  0.99783737    -0.15230
C1020       C  0.65143146  0.67991049  0.99964486     0.37090
N1021       N  0.61202119  0.66441283  0.00582335    -0.89490
H1022       H  0.67365391  0.62049598  0.99887947     0.18210
H1023       H  0.71148757  0.76287832  0.99615883     0.18200
N1024       N  0.76924271  0.71778881  0.97491146    -0.88510
H1025       H  0.61226679  0.64797141  0.03239322     0.35580
H1026       H  0.60445368  0.64477543  0.98233610     0.40670
H1027       H  0.78058781  0.74013181  0.99417353     0.40290
H1028       H  0.76397759  0.73111595  0.94709957     0.35180
C1029       C  0.78485624  0.57308654  0.04306969    -0.26550
C1030       C  0.75509300  0.60282881  0.03788436    -0.14620
C1031       C  0.72625682  0.60526220  0.06873583     0.36010
C1032       C  0.72123060  0.57248991  0.09482415    -0.26000
C1033       C  0.75094682  0.54278567  0.10003858    -0.15230
C1034       C  0.78501517  0.54638257  0.07538948     0.37090
N1035       N  0.82044707  0.52361537  0.08372399    -0.89490
H1036       H  0.80900522  0.57058022  0.02209757     0.18210
H1037       H  0.69370078  0.57170487  0.11088593     0.18200
N1038       N  0.70228147  0.64026422  0.07447563    -0.88510
H1039       H  0.84400432  0.54382335  0.09010658     0.35580
H1040       H  0.82847390  0.50783963  0.05826299     0.40670
H1041       H  0.72161600  0.66385925  0.08286574     0.40290
H1042       H  0.68241653  0.63639309  0.09804164     0.35180
C1043       C  0.82739081  0.62666119  0.96873736    -0.26550
C1044       C  0.79997786  0.64345259  0.99584217    -0.14620
C1045       C  0.81683833  0.67001428  0.02542010     0.36010
C1046       C  0.85741205  0.68274065  0.02353692    -0.26000
C1047       C  0.88250907  0.66784848  0.99397852    -0.15230
C1048       C  0.86710815  0.63965917  0.96643225     0.37090
N1049       N  0.89240935  0.62274805  0.93662704    -0.89490
H1050       H  0.82003773  0.60069600  0.95080581     0.18210
H1051       H  0.86981687  0.70252363  0.04652025     0.18200
N1052       N  0.79326507  0.68297219  0.05829718    -0.88510
H1053       H  0.87945767  0.62843740  0.90853732     0.35580
H1054       H  0.89298085  0.59164927  0.94061606     0.40670
H1055       H  0.79368777  0.71431929  0.05914407     0.40290
H1056       H  0.80705224  0.67283672  0.08464776     0.35180
C1057       C  0.02280818  0.70131282  0.72509474    -0.26550
C1058       C  0.99712725  0.66773629  0.71881573    -0.14620
C1059       C  0.97269803  0.66927755  0.68302672     0.36010
C1060       C  0.98123358  0.69740648  0.65316805    -0.26000
C1061       C  0.00716951  0.73092228  0.65921679    -0.15230
C1062       C  0.02801730  0.73197143  0.69673310     0.37090
N1063       N  0.05592547  0.76334973  0.70663415    -0.89490
H1064       H  0.04094263  0.70345111  0.75221397     0.18210
H1065       H  0.96539891  0.69275578  0.62510201     0.18200
N1066       N  0.93598914  0.64701756  0.67665262    -0.88510
H1067       H  0.08404036  0.75065180  0.71229895     0.35580
H1068       H  0.04655556  0.77729116  0.73284700     0.40670
H1069       H  0.91733622  0.64810817  0.70133896     0.40290
H1070       H  0.94058947  0.61858294  0.66490768     0.35180
C1071       C  0.03451624  0.57292090  0.77858710    -0.26550
C1072       C  0.03494844  0.60513697  0.75067366    -0.14620
C1073       C  0.06982108  0.60797714  0.72640182     0.36010
C1074       C  0.09894580  0.57835001  0.72863477    -0.26000
C1075       C  0.09499090  0.54315068  0.75194738    -0.15230
C1076       C  0.06460234  0.54379693  0.78088160     0.37090
N1077       N  0.06582209  0.51696026  0.81427071    -0.89490
H1078       H  0.01046956  0.57123799  0.79994807     0.18210
H1079       H  0.12521419  0.58276929  0.71044342     0.18200
N1080       N  0.07812607  0.63937095  0.69871950    -0.88510
H1081       H  0.04159828  0.52178534  0.83308720     0.35580
H1082       H  0.09161135  0.52402334  0.83126925     0.40670
H1083       H  0.08585658  0.66571702  0.71396475     0.40290
H1084       H  0.05496807  0.64224225  0.67758560     0.35180
C1085       C  0.97144360  0.69088919  0.85216517    -0.26550
C1086       C  0.00353447  0.67834102  0.87669177    -0.14620
C1087       C  0.03719530  0.66161129  0.85872706     0.36010
C1088       C  0.03527776  0.65220200  0.81830749    -0.26000
C1089       C  0.99941574  0.65530514  0.79452196    -0.15230
C1090       C  0.96962189  0.68118062  0.81094974     0.37090
N1091       N  0.93765728  0.69860537  0.78747556    -0.89490
H1092       H  0.94689057  0.70705570  0.86532170     0.18210
H1093       H  0.06308371  0.64157968  0.80624110     0.18200
N1094       N  0.07395653  0.65325441  0.88041199    -0.88510
H1095       H  0.91014175  0.69062136  0.80001168     0.35580
H1096       H  0.93694017  0.68782702  0.75832976     0.40670
H1097       H  0.07332378  0.66355654  0.90983003     0.40290
H1098       H  0.09704791  0.66955064  0.86690755     0.35180
C1099       C  0.34988568  0.01510727  0.31518949    -0.26550
C1100       C  0.34018734  0.00851698  0.27426657    -0.14620
C1101       C  0.29980709  0.99609183  0.26626974     0.36010
C1102       C  0.27029896  0.00017714  0.29552151    -0.26000
C1103       C  0.27951250  0.00960076  0.33614873    -0.15230
C1104       C  0.32145597  0.01287007  0.34594153     0.37090
N1105       N  0.33689222  0.01452912  0.38641530    -0.89490
H1106       H  0.37999902  0.02288993  0.32420926     0.18210
H1107       H  0.24008463  0.99235778  0.28587705     0.18200
N1108       N  0.28845017  0.97598570  0.22978690    -0.88510
H1109       H  0.35588507  0.99006354  0.39044121     0.35580
H1110       H  0.31438366  0.01112000  0.40732238     0.40670
H1111       H  0.26446812  0.99137027  0.21656464     0.40290
H1112       H  0.27818127  0.94712886  0.23682956     0.35180
C1113       C  0.43612764  0.04722239  0.21774397    -0.26550
C1114       C  0.40216875  0.04810029  0.24231470    -0.14620
C1115       C  0.39640983  0.08465105  0.26351569     0.36010
C1116       C  0.42771385  0.11399778  0.26483347    -0.26000
C1117       C  0.46498710  0.10898177  0.24508638    -0.15230
C1118       C  0.46488734  0.07779631  0.21644221     0.37090
N1119       N  0.48856353  0.07912784  0.18147693    -0.89490
H1120       H  0.44136349  0.02200319  0.19893244     0.18210
H1121       H  0.42310492  0.14092330  0.28221528     0.18200
N1122       N  0.35952177  0.09271611  0.28346295    -0.88510
H1123       H  0.51534075  0.06448554  0.18702905     0.35580
H1124       H  0.49218267  0.10866984  0.17187534     0.40670
H1125       H  0.33727270  0.09728240  0.26167633     0.40290
H1126       H  0.36174747  0.11943615  0.29984916     0.35180
C1127       C  0.34799942  0.98447009  0.12976480    -0.26550
C1128       C  0.31948151  0.01317632  0.12022454    -0.14620
C1129       C  0.30929782  0.04171668  0.14907115     0.36010
C1130       C  0.32677723  0.03911415  0.18784036    -0.26000
C1131       C  0.35637595  0.01010930  0.19779490    -0.15230
C1132       C  0.37025548  0.98652203  0.16512404     0.37090
N1133       N  0.40951099  0.96934384  0.16408496    -0.89490
H1134       H  0.35847402  0.96462132  0.10644415     0.18210
H1135       H  0.31718497  0.05986909  0.21038739     0.18200
N1136       N  0.28209669  0.07335224  0.13886720    -0.88510
H1137       H  0.40649794  0.93983060  0.15381762     0.35580
H1138       H  0.42596609  0.98454904  0.14236360     0.40670
H1139       H  0.29580479  0.09122108  0.11726479     0.40290
H1140       H  0.27766752  0.09186314  0.16363824     0.35180
C1141       C  0.31899655  0.29133108  0.03504513    -0.26550
C1142       C  0.34016970  0.28511598  0.99945645    -0.14620
C1143       C  0.32578099  0.30674084  0.96528333     0.36010
C1144       C  0.29481003  0.33481063  0.96856007    -0.26000
C1145       C  0.27770585  0.34498910  0.00518184    -0.15230
C1146       C  0.28820611  0.32002303  0.03829141     0.37090
N1147       N  0.26706143  0.32273760  0.07510714    -0.89490
H1148       H  0.32648962  0.27326786  0.06089651     0.18210
H1149       H  0.28468929  0.34924728  0.94136595     0.18200
N1150       N  0.34152889  0.30090751  0.92634403    -0.88510
H1151       H  0.28063948  0.30524012  0.09729760     0.35580
H1152       H  0.23856728  0.31003486  0.06990904     0.40670
H1153       H  0.35203462  0.32868209  0.91623434     0.40290
H1154       H  0.31799513  0.29153336  0.90722823     0.35180
C1155       C  0.41165470  0.29749342  0.05681610    -0.26550
C1156       C  0.40178736  0.25918952  0.04085900    -0.14620
C1157       C  0.41591326  0.22667971  0.06501191     0.36010
C1158       C  0.45053829  0.23207430  0.08919559    -0.26000
C1159       C  0.46171282  0.26992594  0.10475307    -0.15230
C1160       C  0.43860921  0.30303158  0.08985538     0.37090
N1161       N  0.44322231  0.34275487  0.10584093    -0.89490
H1162       H  0.39796136  0.32382732  0.04382113     0.18210
H1163       H  0.46579862  0.20571131  0.10021347     0.18200
N1164       N  0.39352716  0.18975322  0.06879384    -0.88510
H1165       H  0.41542157  0.35130564  0.11694377     0.35580
H1166       H  0.45010435  0.36252342  0.08269674     0.40670
H1167       H  0.36612750  0.19661876  0.08183539     0.40290
H1168       H  0.40815210  0.16973911  0.08798008     0.35180
C1169       C  0.32037859  0.19931074  0.99912936    -0.26550
C1170       C  0.36168789  0.21013883  0.99622223    -0.14620
C1171       C  0.38954643  0.17827795  0.98870319     0.36010
C1172       C  0.37512674  0.13958996  0.98309030    -0.26000
C1173       C  0.33501094  0.12867384  0.98971918    -0.15230
C1174       C  0.30716490  0.15911632  0.99732001     0.37090
N1175       N  0.26555629  0.15035629  0.00377192    -0.89490
H1176       H  0.29776252  0.22159329  0.00410054     0.18210
H1177       H  0.39721167  0.11713096  0.97603962     0.18200
N1178       N  0.43282260  0.18302497  0.98687708    -0.88510
H1179       H  0.26328761  0.13193826  0.02886260     0.35580
H1180       H  0.25393220  0.13493282  0.97878954     0.40670
H1181       H  0.44358987  0.21134846  0.99476572     0.40290
H1182       H  0.44581401  0.16385492  0.00801875     0.35180
C1183       C  0.31273895  0.73611892  0.02981068    -0.26550
C1184       C  0.34362337  0.73308785  0.00129625    -0.14620
C1185       C  0.33998770  0.69763741  0.97659820     0.36010
C1186       C  0.31305162  0.66609754  0.98647114    -0.26000
C1187       C  0.27859395  0.67230961  0.00928787    -0.15230
C1188       C  0.27923243  0.70951277  0.03136716     0.37090
N1189       N  0.24639039  0.72335410  0.05461920    -0.89490
H1190       H  0.31257522  0.76198616  0.04949108     0.18210
H1191       H  0.31733370  0.63734343  0.97245260     0.18200
N1192       N  0.36063940  0.69383214  0.93960104    -0.88510
H1193       H  0.23785937  0.70235892  0.07571511     0.35580
H1194       H  0.22218269  0.73054735  0.03588114     0.40670
H1195       H  0.34815470  0.71475504  0.91991558     0.40290
H1196       H  0.35554549  0.66569918  0.92636897     0.35180
C1197       C  0.39658609  0.75158621  0.07432516    -0.26550
C1198       C  0.40767439  0.76897300  0.03740181    -0.14620
C1199       C  0.44744554  0.78655580  0.03823000     0.36010
C1200       C  0.46985303  0.79060981  0.07398421    -0.26000
C1201       C  0.46350977  0.76487463  0.10610598    -0.15230
C1202       C  0.42349461  0.74826822  0.10754362     0.37090
N1203       N  0.40978244  0.72600648  0.14134759    -0.89490
H1204       H  0.36809061  0.73696794  0.07787210     0.18210
H1205       H  0.49792849  0.80698251  0.07264167     0.18200
N1206       N  0.46974558  0.79348187  0.00283245    -0.88510
H1207       H  0.40003598  0.69755896  0.13172545     0.35580
H1208       H  0.38477291  0.74064443  0.15264247     0.40670
H1209       H  0.49267335  0.77272388  0.00221132     0.40290
H1210       H  0.48473377  0.82090847  0.00619151     0.35180
C1211       C  0.31711097  0.81951116  0.99623256    -0.26550
C1212       C  0.35944093  0.81176134  0.99550929    -0.14620
C1213       C  0.38384317  0.84723209  0.99122555     0.36010
C1214       C  0.36833564  0.88492251  0.99646241    -0.26000
C1215       C  0.32830713  0.89172981  0.00419060    -0.15230
C1216       C  0.30147297  0.85886453  0.00174724     0.37090
N1217       N  0.25906715  0.86511248  0.00518283    -0.89490
H1218       H  0.29543654  0.79568885  0.99140914     0.18210
H1219       H  0.38898816  0.91005706  0.99256210     0.18200
N1220       N  0.42368150  0.84740085  0.97659025    -0.88510
H1221       H  0.24345948  0.83770442  0.00365731     0.35580
H1222       H  0.24964602  0.88175203  0.98038344     0.40670
H1223       H  0.44122141  0.86581483  0.99561597     0.40290
H1224       H  0.42357489  0.86168157  0.94879415     0.35180
C1225       C  0.29062956  0.97289477  0.67888421    -0.26550
C1226       C  0.27684272  0.00915907  0.66189560    -0.14620
C1227       C  0.28917404  0.04487913  0.68232110     0.36010
C1228       C  0.31750168  0.04371747  0.71413086    -0.26000
C1229       C  0.33598835  0.00788191  0.72695723    -0.15230
C1230       C  0.31957231  0.97170179  0.71036875     0.37090
N1231       N  0.32965468  0.93360510  0.72721843    -0.89490
H1232       H  0.27770106  0.94472872  0.66846890     0.18210
H1233       H  0.32528242  0.07180928  0.72884661     0.18200
N1234       N  0.27235087  0.08280919  0.67214083    -0.88510
H1235       H  0.31889202  0.91006529  0.70909345     0.35580
H1236       H  0.31404081  0.93140255  0.75393392     0.40670
H1237       H  0.29581284  0.10228681  0.66435488     0.40290
H1238       H  0.25855557  0.09443837  0.69741415     0.35180
C1239       C  0.44102211  0.10472624  0.77918318    -0.26550
C1240       C  0.45481240  0.11549366  0.74085853    -0.14620
C1241       C  0.43238234  0.09724495  0.70813670     0.36010
C1242       C  0.40610808  0.06459523  0.71510298    -0.26000
C1243       C  0.39591838  0.05135564  0.75367070    -0.15230
C1244       C  0.40795509  0.07888633  0.78473941     0.37090
N1245       N  0.38215161  0.09004621  0.81675963    -0.89490
H1246       H  0.45291854  0.11965264  0.80562489     0.18210
H1247       H  0.39247546  0.05012346  0.68913189     0.18200
N1248       N  0.43501745  0.11052654  0.66752634    -0.88510
H1249       H  0.39369180  0.08027917  0.84421339     0.35580
H1250       H  0.35223533  0.08149873  0.81156640     0.40670
H1251       H  0.40681010  0.12149633  0.65904573     0.40290
H1252       H  0.43988421  0.08602378  0.64873153     0.35180
C1253       C  0.38755759  0.00497711  0.83245033    -0.26550
C1254       C  0.35694326  0.00722531  0.80272981    -0.14620
C1255       C  0.31635021  0.00631476  0.81573342     0.36010
C1256       C  0.30820909  0.00333041  0.85679653    -0.26000
C1257       C  0.33922193  0.99979376  0.88548344    -0.15230
C1258       C  0.37949836  0.99940507  0.87269893     0.37090
N1259       N  0.41256163  0.99365388  0.90038558    -0.89490
H1260       H  0.41874963  0.00615178  0.82365038     0.18210
H1261       H  0.27724442  0.00395188  0.86625794     0.18200
N1262       N  0.28307078  0.00968444  0.78836243    -0.88510
H1263       H  0.44020391  0.99683741  0.88627866     0.35580
H1264       H  0.41105055  0.96385634  0.91001916     0.40670
H1265       H  0.26668864  0.03501500  0.79615302     0.40290
H1266       H  0.26449788  0.98439485  0.79154307     0.35180
C1267       C  0.54170411  0.78650850  0.92108373    -0.26550
C1268       C  0.53678713  0.75254088  0.89626800    -0.14620
C1269       C  0.56359505  0.72007074  0.90463174     0.36010
C1270       C  0.59605310  0.72490612  0.93202451    -0.26000
C1271       C  0.59787211  0.75686125  0.95949187    -0.15230
C1272       C  0.57045351  0.78885193  0.95217929     0.37090
N1273       N  0.57237732  0.82513733  0.97507965    -0.89490
H1274       H  0.52199811  0.81182939  0.91671513     0.18210
H1275       H  0.61662600  0.70038100  0.93472791     0.18200
N1276       N  0.55599793  0.68023389  0.89043320    -0.88510
H1277       H  0.54498387  0.82978364  0.98854458     0.35580
H1278       H  0.57780964  0.84906427  0.95568505     0.40670
H1279       H  0.55102627  0.66163519  0.91500966     0.40290
H1280       H  0.58180230  0.67025315  0.87624191     0.35180
C1281       C  0.46128447  0.72733901  0.92777857    -0.26550
C1282       C  0.46327365  0.75710176  0.89753197    -0.14620
C1283       C  0.43314405  0.78721299  0.89901865     0.36010
C1284       C  0.40216753  0.78408496  0.92680567    -0.26000
C1285       C  0.40487985  0.75929595  0.96092476    -0.15230
C1286       C  0.43426276  0.72839125  0.95949758     0.37090
N1287       N  0.43820499  0.69762716  0.98943570    -0.89490
H1288       H  0.48215830  0.70270332  0.92725100     0.18210
H1289       H  0.37785340  0.80511300  0.92361081     0.18200
N1290       N  0.43363720  0.82330216  0.87604308    -0.88510
H1291       H  0.43463719  0.66982758  0.97514080     0.35580
H1292       H  0.41556723  0.69859467  0.01037787     0.40670
H1293       H  0.41863308  0.81930741  0.84868411     0.40290
H1294       H  0.46236174  0.83616044  0.87478949     0.35180
C1295       C  0.52347526  0.69862877  0.81851009    -0.26550
C1296       C  0.49250196  0.71248768  0.84325134    -0.14620
C1297       C  0.45813131  0.68640603  0.84640019     0.36010
C1298       C  0.46304646  0.64548421  0.84133617    -0.26000
C1299       C  0.49852660  0.63046621  0.82640670    -0.15230
C1300       C  0.52741148  0.65733293  0.81065105     0.37090
N1301       N  0.56306563  0.64398854  0.79125308    -0.89490
H1302       H  0.54786884  0.71857918  0.81052605     0.18210
H1303       H  0.43832932  0.62517727  0.84809161     0.18200
N1304       N  0.41749749  0.69950312  0.85091452    -0.88510
H1305       H  0.56212972  0.65492254  0.76202190     0.35580
H1306       H  0.56392413  0.61278692  0.78917395     0.40670
H1307       H  0.41400560  0.73014979  0.84719967     0.40290
H1308       H  0.40751522  0.69071399  0.87891720     0.35180
C1309       C  0.77695865  0.46896849  0.93839447    -0.26550
C1310       C  0.75619860  0.46199874  0.90204693    -0.14620
C1311       C  0.74110037  0.42188739  0.89701034     0.36010
C1312       C  0.73622924  0.39706743  0.93086595    -0.26000
C1313       C  0.75700022  0.40394255  0.96770669    -0.15230
C1314       C  0.77963843  0.44074847  0.96910110     0.37090
N1315       N  0.80214198  0.45292659  0.00378635    -0.89490
H1316       H  0.79027504  0.49802602  0.94482180     0.18210
H1317       H  0.71409294  0.37407415  0.92690196     0.18200
N1318       N  0.72795328  0.40571319  0.85903883    -0.88510
H1319       H  0.78903698  0.47912563  0.01431619     0.35580
H1320       H  0.83158616  0.45970209  0.99538277     0.40670
H1321       H  0.73318472  0.42566686  0.83599053     0.40290
H1322       H  0.69708326  0.39956307  0.85978165     0.35180
C1323       C  0.72089753  0.53448061  0.93443092    -0.26550
C1324       C  0.74378356  0.53869999  0.89940008    -0.14620
C1325       C  0.75835085  0.57888064  0.89208755     0.36010
C1326       C  0.75433973  0.60871452  0.92209136    -0.26000
C1327       C  0.74409522  0.59865503  0.96170926    -0.15230
C1328       C  0.72257723  0.56200343  0.96578720     0.37090
N1329       N  0.70165699  0.55177075  0.00135396    -0.89490
H1330       H  0.70475559  0.50693001  0.94029713     0.18210
H1331       H  0.76541874  0.63877653  0.91605683     0.18200
N1332       N  0.77761029  0.59181194  0.85618807    -0.88510
H1333       H  0.71362556  0.52501268  0.01207009     0.35580
H1334       H  0.67136656  0.54652388  0.99390227     0.40670
H1335       H  0.77905220  0.56983386  0.83451112     0.40290
H1336       H  0.80725909  0.60000104  0.86368735     0.35180
C1337       C  0.67253098  0.47425923  0.87487973    -0.26550
C1338       C  0.70254229  0.49662969  0.85501110    -0.14620
C1339       C  0.68841200  0.52257653  0.82379020     0.36010
C1340       C  0.64758412  0.52237368  0.81171034    -0.26000
C1341       C  0.61942330  0.49881123  0.83145519    -0.15230
C1342       C  0.63223517  0.47394297  0.86294053     0.37090
N1343       N  0.60345494  0.45053155  0.88496356    -0.89490
H1344       H  0.67906031  0.45850932  0.90210810     0.18210
H1345       H  0.63744543  0.54318799  0.78895708     0.18200
N1346       N  0.71466146  0.55085862  0.80521947    -0.88510
H1347       H  0.61745875  0.43415643  0.90776774     0.35580
H1348       H  0.59039248  0.42952480  0.86536592     0.40670
H1349       H  0.70351370  0.57962266  0.81010714     0.40290
H1350       H  0.71385866  0.54549444  0.77440690     0.35180
C1351       C  0.19558423  0.54341679  0.83652761    -0.26550
C1352       C  0.22064322  0.51071859  0.84441262    -0.14620
C1353       C  0.21547041  0.47723612  0.81803825     0.36010
C1354       C  0.18536425  0.47726127  0.78708995    -0.26000
C1355       C  0.15937011  0.51016057  0.77984574    -0.15230
C1356       C  0.16837782  0.54502924  0.80434444     0.37090
N1357       N  0.15513301  0.58485432  0.79610752    -0.89490
H1358       H  0.19795575  0.57040472  0.85421854     0.18210
H1359       H  0.18185571  0.45067081  0.76856642     0.18200
N1360       N  0.24018444  0.44260437  0.82293135    -0.88510
H1361       H  0.12529596  0.58939308  0.80362862     0.35580
H1362       H  0.16336393  0.59371110  0.76751932     0.40670
H1363       H  0.25464152  0.43719626  0.79604215     0.40290
H1364       H  0.22145797  0.41782348  0.82814443     0.35180
C1365       C  0.22035803  0.54421503  0.94321909    -0.26550
C1366       C  0.24343076  0.55040943  0.90882225    -0.14620
C1367       C  0.25645635  0.59140011  0.90318801     0.36010
C1368       C  0.25385109  0.61987862  0.93468691    -0.26000
C1369       C  0.23814360  0.61025708  0.97259291    -0.15230
C1370       C  0.21564919  0.57307705  0.97327345     0.37090
N1371       N  0.19064153  0.56061550  0.00561841    -0.89490
H1372       H  0.20642651  0.51579885  0.94915587     0.18210
H1373       H  0.26439577  0.65005652  0.92885095     0.18200
N1374       N  0.27141974  0.60618832  0.86592408    -0.88510
H1375       H  0.16109209  0.55835256  0.99455876     0.35580
H1376       H  0.19048302  0.58105883  0.02866698     0.40670
H1377       H  0.26672243  0.58603239  0.84245674     0.40290
H1378       H  0.30228101  0.61179905  0.86941960     0.35180
C1379       C  0.28818047  0.45843850  0.92534544    -0.26550
C1380       C  0.25262107  0.47296020  0.90616275    -0.14620
C1381       C  0.21720961  0.45029778  0.91579400     0.36010
C1382       C  0.21895350  0.41834883  0.94310256    -0.26000
C1383       C  0.25222103  0.41103723  0.96952367    -0.15230
C1384       C  0.28845466  0.42982658  0.95667339     0.37090
N1385       N  0.32682804  0.41758198  0.97182329    -0.89490
H1386       H  0.31746624  0.46807029  0.91653845     0.18210
H1387       H  0.19209205  0.39999887  0.94353984     0.18200
N1388       N  0.17782036  0.45868285  0.90008017    -0.88510
H1389       H  0.34239624  0.44317731  0.98214432     0.35580
H1390       H  0.34306696  0.40577252  0.94814814     0.40670
H1391       H  0.17454074  0.44615747  0.87184822     0.40290
H1392       H  0.17153829  0.48922310  0.89991289     0.35180
C1393       C  0.35097904  0.51578798  0.81306496    -0.26550
C1394       C  0.38058219  0.52200670  0.84266752    -0.14620
C1395       C  0.36806510  0.53416660  0.88092374     0.36010
C1396       C  0.32733934  0.53324813  0.89033489    -0.26000
C1397       C  0.29697780  0.52038058  0.86289589    -0.15230
C1398       C  0.30956974  0.51700302  0.82211214     0.37090
N1399       N  0.28170751  0.51810976  0.78914407    -0.89490
H1400       H  0.35988177  0.51022349  0.78258669     0.18210
H1401       H  0.31979556  0.54022180  0.92084781     0.18200
N1402       N  0.39664930  0.54741602  0.91090438    -0.88510
H1403       H  0.28693856  0.49345760  0.77065568     0.35580
H1404       H  0.28781643  0.54395087  0.77258437     0.40670
H1405       H  0.39373845  0.52890916  0.93588483     0.40290
H1406       H  0.38935276  0.57663318  0.91936106     0.35180
C1407       C  0.51900994  0.17170150  0.80887198    -0.26550
C1408       C  0.49283140  0.17497186  0.77540089    -0.14620
C1409       C  0.46392357  0.20647700  0.78004525     0.36010
C1410       C  0.46794665  0.23506997  0.81115675    -0.26000
C1411       C  0.49992282  0.23560390  0.83941569    -0.15230
C1412       C  0.52825641  0.20404188  0.83448719     0.37090
N1413       N  0.56932513  0.20600717  0.84826453    -0.89490
H1414       H  0.53365414  0.14401336  0.81600532     0.18210
H1415       H  0.44462127  0.25711375  0.81344816     0.18200
N1416       N  0.42628408  0.20771196  0.75893228    -0.88510
H1417       H  0.57417615  0.18787677  0.87321559     0.35580
H1418       H  0.58063946  0.23526570  0.85068858     0.40670
H1419       H  0.41377679  0.17948586  0.75287511     0.40290
H1420       H  0.42734623  0.22817364  0.73540846     0.35180
C1421       C  0.53727240  0.22859983  0.92433579    -0.26550
C1422       C  0.53746550  0.26465463  0.90292418    -0.14620
C1423       C  0.56696365  0.29373936  0.91543978     0.36010
C1424       C  0.59321523  0.28566925  0.94794824    -0.26000
C1425       C  0.59378385  0.24856329  0.96882750    -0.15230
C1426       C  0.56474384  0.21965772  0.95484678     0.37090
N1427       N  0.56182763  0.18015479  0.97015210    -0.89490
H1428       H  0.51484450  0.20578348  0.91662942     0.18210
H1429       H  0.61193058  0.31051722  0.95810986     0.18200
N1430       N  0.56931728  0.33288025  0.89831721    -0.88510
H1431       H  0.56743543  0.15986868  0.94707526     0.35580
H1432       H  0.53217707  0.17537347  0.97919393     0.40670
H1433       H  0.59823847  0.33696706  0.88715001     0.40290
H1434       H  0.56537541  0.35427275  0.92077879     0.35180
C1435       C  0.43350169  0.23930676  0.89965677    -0.26550
C1436       C  0.46512992  0.26738843  0.90326889    -0.14620
C1437       C  0.46301944  0.29580831  0.93530605     0.36010
C1438       C  0.43336191  0.29260808  0.96422657    -0.26000
C1439       C  0.40348849  0.26267214  0.96244647    -0.15230
C1440       C  0.40121606  0.23948113  0.92606777     0.37090
N1441       N  0.36559993  0.21710541  0.91470791    -0.89490
H1442       H  0.43214803  0.21799548  0.87537160     0.18210
H1443       H  0.43416524  0.31446422  0.98790721     0.18200
N1444       N  0.49080980  0.32885499  0.93844673    -0.88510
H1445       H  0.37353921  0.18732280  0.90944680     0.35580
H1446       H  0.35481682  0.22849879  0.88754619     0.40670
H1447       H  0.50565818  0.32729124  0.96619167     0.40290
H1448       H  0.47455105  0.35548815  0.93760733     0.35180
C1449       C  0.52918955  0.32558455  0.82825034    -0.26550
C1450       C  0.49709559  0.31029420  0.85072686    -0.14620
C1451       C  0.46095544  0.33328316  0.84962230     0.36010
C1452       C  0.46291071  0.37396120  0.84126507    -0.26000
C1453       C  0.49845928  0.39146377  0.82893248    -0.15230
C1454       C  0.53097831  0.36668780  0.81844056     0.37090
N1455       N  0.56615262  0.38205511  0.79910264    -0.89490
H1456       H  0.55494440  0.30693144  0.82267394     0.18210
H1457       H  0.43636148  0.39211536  0.84487690     0.18200
N1458       N  0.42197526  0.31595373  0.85599650    -0.88510
H1459       H  0.59092432  0.37745080  0.81812323     0.35580
H1460       H  0.56422666  0.41290272  0.79427700     0.40670
H1461       H  0.40427342  0.32043621  0.83029310     0.40290
H1462       H  0.40888265  0.33154401  0.87941460     0.35180
C1463       C  0.72233890  0.91153244  0.43080337    -0.26550
C1464       C  0.75603977  0.90636168  0.45716001    -0.14620
C1465       C  0.79291851  0.92031204  0.44089906     0.36010
C1466       C  0.79242772  0.94863561  0.40927226    -0.26000
C1467       C  0.75625846  0.96514488  0.39300882    -0.15230
C1468       C  0.72088429  0.94229831  0.40190795     0.37090
N1469       N  0.68202804  0.95350420  0.38663475    -0.89490
H1470       H  0.69492183  0.89438879  0.43400837     0.18210
H1471       H  0.82129011  0.95787933  0.39851438     0.18200
N1472       N  0.83083582  0.90412546  0.45430163    -0.88510
H1473       H  0.66348052  0.96018477  0.41057047     0.35580
H1474       H  0.66924578  0.92864694  0.37180335     0.40670
H1475       H  0.83688064  0.91246942  0.48384908     0.40290
H1476       H  0.85460729  0.91554298  0.43760184     0.35180
C1477       C  0.77950313  0.95326351  0.53109375    -0.26550
C1478       C  0.75659652  0.91799207  0.53571123    -0.14620
C1479       C  0.73367935  0.91684544  0.57173830     0.36010
C1480       C  0.72993812  0.95129268  0.59618013    -0.26000
C1481       C  0.75545526  0.98536619  0.59363348    -0.15230
C1482       C  0.78038715  0.98525797  0.55885616     0.37090
N1483       N  0.80580221  0.01830525  0.54883489    -0.89490
H1484       H  0.79712763  0.95772520  0.50505338     0.18210
H1485       H  0.70621629  0.95025244  0.61742635     0.18200
N1486       N  0.71365555  0.88071886  0.58424629    -0.88510
H1487       H  0.79876058  0.02799619  0.51999852     0.35580
H1488       H  0.83538547  0.00803118  0.54832085     0.40670
H1489       H  0.68305405  0.88662967  0.58723141     0.40290
H1490       H  0.72485748  0.87315909  0.61258569     0.35180
C1491       C  0.67853109  0.89868798  0.50468673    -0.26550
C1492       C  0.70805135  0.86870411  0.50327445    -0.14620
C1493       C  0.69444325  0.82806679  0.50817107     0.36010
C1494       C  0.65275375  0.81925774  0.50954364    -0.26000
C1495       C  0.62448298  0.85001319  0.51040167    -0.15230
C1496       C  0.63845321  0.89039946  0.51118172     0.37090
N1497       N  0.61215050  0.92345509  0.51909233    -0.89490
H1498       H  0.68753009  0.92994256  0.50236656     0.18210
H1499       H  0.64260412  0.78827339  0.51076916     0.18200
N1500       N  0.72172321  0.79562546  0.51327697    -0.88510
H1501       H  0.62725817  0.95111115  0.51756184     0.35580
H1502       H  0.60269119  0.92056932  0.54858678     0.40670
H1503       H  0.71557946  0.77435121  0.49086918     0.40290
H1504       H  0.71630809  0.78219295  0.54087632     0.35180
C1505       C  0.47036572  0.78985403  0.80569987    -0.26550
C1506       C  0.50246257  0.78618668  0.83357791    -0.14620
C1507       C  0.53751618  0.80981356  0.82436075     0.36010
C1508       C  0.53567215  0.83980088  0.79488541    -0.26000
C1509       C  0.50067792  0.84834709  0.77185380    -0.15230
C1510       C  0.46861790  0.81955433  0.77595383     0.37090
N1511       N  0.43455723  0.81700598  0.74913824    -0.89490
H1512       H  0.44533189  0.76913527  0.80684932     0.18210
H1513       H  0.56382690  0.85465559  0.78854079     0.18200
N1514       N  0.57722734  0.80163558  0.83933097    -0.88510
H1515       H  0.44375069  0.80701874  0.72124848     0.35580
H1516       H  0.41995989  0.84432286  0.74677635     0.40670
H1517       H  0.58362922  0.77111134  0.83825957     0.40290
H1518       H  0.58257084  0.81486689  0.86716832     0.35180
C1519       C  0.55074008  0.92748554  0.77857109    -0.26550
C1520       C  0.53984442  0.91071596  0.74128837    -0.14620
C1521       C  0.56288215  0.92455803  0.70798817     0.36010
C1522       C  0.59017338  0.95708026  0.71274812    -0.26000
C1523       C  0.59948555  0.97467827  0.75026692    -0.15230
C1524       C  0.58409920  0.95312690  0.78365347     0.37090
N1525       N  0.60404796  0.95282312  0.82193141    -0.89490
H1526       H  0.53508592  0.91796672  0.80506732     0.18210
H1527       H  0.60304710  0.96959852  0.68598665     0.18200
N1528       N  0.55749870  0.90846566  0.66849032    -0.88510
H1529       H  0.61421737  0.92372995  0.82724211     0.35580
H1530       H  0.58313077  0.95926865  0.84392607     0.40670
H1531       H  0.58501926  0.89690410  0.65959608     0.40290
H1532       H  0.55026573  0.93168097  0.64881019     0.35180
C1533       C  0.42863833  0.97434045  0.72096322    -0.26550
C1534       C  0.40162386  0.97321112  0.75260289    -0.14620
C1535       C  0.40514203  0.93846654  0.77816450     0.36010
C1536       C  0.43866688  0.91305077  0.77624602    -0.26000
C1537       C  0.46620340  0.91535612  0.74510295    -0.15230
C1538       C  0.46037287  0.94739945  0.71734827     0.37090
N1539       N  0.48552996  0.95200445  0.68350387    -0.89490
H1540       H  0.42548658  0.99578024  0.69742442     0.18210
H1541       H  0.44124006  0.88979857  0.79849821     0.18200
N1542       N  0.37372854  0.92649531  0.80461425    -0.88510
H1543       H  0.49911801  0.98035833  0.68506914     0.35580
H1544       H  0.46759574  0.95077891  0.65751589     0.40670
H1545       H  0.38610113  0.92362952  0.83340292     0.40290
H1546       H  0.36349031  0.89792051  0.79591123     0.35180
C1547       C  0.46062856  0.86766794  0.67460884    -0.26550
C1548       C  0.49527192  0.86158410  0.69896408    -0.14620
C1549       C  0.52396193  0.83357576  0.68502019     0.36010
C1550       C  0.52243507  0.82185050  0.64472678    -0.26000
C1551       C  0.49246613  0.83649496  0.61918801    -0.15230
C1552       C  0.45944589  0.85666142  0.63470962     0.37090
N1553       N  0.42507054  0.86790709  0.61063897    -0.89490
H1554       H  0.43430176  0.88238356  0.68561769     0.18210
H1555       H  0.54659860  0.80436356  0.63253116     0.18200
N1556       N  0.55590483  0.81930560  0.71055772    -0.88510
H1557       H  0.39967706  0.85431438  0.62297100     0.35580
H1558       H  0.42662142  0.85654412  0.58164008     0.40670
H1559       H  0.57620910  0.84289895  0.71595034     0.40290
H1560       H  0.57209340  0.79698178  0.69616459     0.35180
C1561       C  0.47082688  0.78341150  0.19236362    -0.26550
C1562       C  0.50566737  0.78032873  0.16911158    -0.14620
C1563       C  0.53991534  0.80083995  0.18672310     0.36010
C1564       C  0.53434252  0.83133974  0.21518207    -0.26000
C1565       C  0.49652883  0.84138292  0.23082885    -0.15230
C1566       C  0.46612843  0.81144640  0.22334248     0.37090
N1567       N  0.43079256  0.80660153  0.24700604    -0.89490
H1568       H  0.44687870  0.76221109  0.18818631     0.18210
H1569       H  0.56148513  0.84479985  0.22773816     0.18200
N1570       N  0.58026251  0.78642124  0.18385736    -0.88510
H1571       H  0.40549880  0.80603350  0.22797462     0.35580
H1572       H  0.42710401  0.83095221  0.26549548     0.40670
H1573       H  0.58909376  0.77628891  0.21220280     0.40290
H1574       H  0.59957512  0.81091352  0.17936893     0.35180
C1575       C  0.54550698  0.91822141  0.22118059    -0.26550
C1576       C  0.53252985  0.90659216  0.25918579    -0.14620
C1577       C  0.55374797  0.92560083  0.29226905     0.36010
C1578       C  0.58292058  0.95606146  0.28553307    -0.26000
C1579       C  0.59617079  0.96630054  0.24712705    -0.15230
C1580       C  0.58194080  0.93921327  0.21634452     0.37090
N1581       N  0.60535526  0.92967731  0.18194075    -0.89490
H1582       H  0.53039414  0.90595397  0.19485859     0.18210
H1583       H  0.59782367  0.96899989  0.31133504     0.18200
N1584       N  0.54497989  0.91653492  0.33302654    -0.88510
H1585       H  0.58967834  0.91011931  0.16253837     0.35580
H1586       H  0.63062735  0.91414958  0.19188567     0.40670
H1587       H  0.53680805  0.94298578  0.34750203     0.40290
H1588       H  0.57140266  0.90648827  0.34690141     0.35180
C1589       C  0.45931136  0.94077619  0.28125968    -0.26550
C1590       C  0.45807269  0.90762317  0.25540607    -0.14620
C1591       C  0.42352192  0.90490934  0.22962717     0.36010
C1592       C  0.39236411  0.93362149  0.23340045    -0.26000
C1593       C  0.40045697  0.97161592  0.25111483    -0.15230
C1594       C  0.43383414  0.97295767  0.27779982     0.37090
N1595       N  0.44442100  0.00730337  0.30103406    -0.89490
H1596       H  0.48142466  0.94287223  0.30484866     0.18210
H1597       H  0.36447620  0.92897825  0.21677863     0.18200
N1598       N  0.42033491  0.87540123  0.19851089    -0.88510
H1599       H  0.47431340  0.01334374  0.29409945     0.35580
H1600       H  0.44420568  0.99911652  0.33119382     0.40670
H1601       H  0.44272525  0.88177257  0.17786653     0.40290
H1602       H  0.39267633  0.87700183  0.18328918     0.35180
C1603       C  0.52521654  0.83537535  0.31629256    -0.26550
C1604       C  0.49158818  0.85788445  0.30330608    -0.14620
C1605       C  0.45943402  0.86255324  0.33089563     0.36010
C1606       C  0.46573770  0.85286359  0.37065836    -0.26000
C1607       C  0.50206683  0.83743353  0.38403331    -0.15230
C1608       C  0.53131991  0.82585972  0.35660896     0.37090
N1609       N  0.56873230  0.80801877  0.36865486    -0.89490
H1610       H  0.54930834  0.82924554  0.29600073     0.18210
H1611       H  0.44220432  0.85901478  0.39181678     0.18200
N1612       N  0.42028614  0.87697937  0.31991716    -0.88510
H1613       H  0.56964225  0.77952786  0.35556736     0.35580
H1614       H  0.57057884  0.80380888  0.39949536     0.40670
H1615       H  0.39898715  0.85484438  0.32686896     0.40290
H1616       H  0.41422794  0.90219869  0.33740431     0.35180
C1617       C  0.21153442  0.83464159  0.45938006    -0.26550
C1618       C  0.22943081  0.84878993  0.49560565    -0.14620
C1619       C  0.22031725  0.82682661  0.53048870     0.36010
C1620       C  0.18791260  0.79961312  0.53013361    -0.26000
C1621       C  0.16462247  0.79133455  0.49518083    -0.15230
C1622       C  0.18051517  0.80553525  0.45871137     0.37090
N1623       N  0.16814112  0.78805414  0.42114593    -0.89490
H1624       H  0.22175005  0.84568829  0.43095957     0.18210
H1625       H  0.18142401  0.78453220  0.55783354     0.18200
N1626       N  0.24425250  0.83131526  0.56630942    -0.88510
H1627       H  0.19309298  0.77427232  0.40879984     0.35580
H1628       H  0.15995190  0.81096647  0.40152989     0.40670
H1629       H  0.25638455  0.80338842  0.57339073     0.40290
H1630       H  0.22538983  0.83955208  0.58951960     0.35180
C1631       C  0.21987326  0.91747710  0.55394470    -0.26550
C1632       C  0.25735767  0.90985136  0.53674840    -0.14620
C1633       C  0.29072372  0.92137930  0.56235409     0.36010
C1634       C  0.28628381  0.95290751  0.59007402    -0.26000
C1635       C  0.24847543  0.96819995  0.60014973    -0.15230
C1636       C  0.21576858  0.94250898  0.58753465     0.37090
N1637       N  0.18085882  0.93633678  0.61134163    -0.89490
H1638       H  0.19361585  0.90053367  0.54435422     0.18210
H1639       H  0.31291876  0.96366762  0.60584842     0.18200
N1640       N  0.32746973  0.89916764  0.56391545    -0.88510
H1641       H  0.15530858  0.93972954  0.59302098     0.35580
H1642       H  0.18083246  0.90665072  0.62135835     0.40670
H1643       H  0.32053812  0.87049957  0.57455756     0.40290
H1644       H  0.34825991  0.91180633  0.58427926     0.35180
C1645       C  0.21527150  0.96799654  0.42518087    -0.26550
C1646       C  0.24583498  0.97319723  0.39659714    -0.14620
C1647       C  0.27124966  0.93924253  0.39276176     0.36010
C1648       C  0.27199329  0.90978662  0.42296771    -0.26000
C1649       C  0.24907880  0.91246287  0.45832102    -0.15230
C1650       C  0.21610562  0.93895764  0.45523743     0.37090
N1651       N  0.17937805  0.93337930  0.47619839    -0.89490
H1652       H  0.18745849  0.98355370  0.42216977     0.18210
H1653       H  0.29117416  0.88426865  0.41857006     0.18200
N1654       N  0.29363486  0.93208996  0.35720580    -0.88510
H1655       H  0.17837303  0.95280840  0.50066748     0.35580
H1656       H  0.17328537  0.90333818  0.48243482     0.40670
H1657       H  0.27283990  0.92516952  0.33433469     0.40290
H1658       H  0.31211951  0.90711404  0.36027318     0.35180
C1659       C  0.31386166  0.82876012  0.49493212    -0.26550
C1660       C  0.30367441  0.87005579  0.49096606    -0.14620
C1661       C  0.33590587  0.89769046  0.48271132     0.36010
C1662       C  0.37433890  0.88349481  0.47805042    -0.26000
C1663       C  0.38491681  0.84398421  0.48754962    -0.15230
C1664       C  0.35426502  0.81588941  0.49507951     0.37090
N1665       N  0.36405342  0.77494933  0.50374940    -0.89490
H1666       H  0.29099348  0.80628631  0.50025039     0.18210
H1667       H  0.39726356  0.90553604  0.47062273     0.18200
N1668       N  0.33232927  0.94084367  0.48202215    -0.88510
H1669       H  0.33788873  0.75791829  0.50807728     0.35580
H1670       H  0.38008727  0.77472662  0.53091378     0.40670
H1671       H  0.30444183  0.95154940  0.49008189     0.40290
H1672       H  0.33831752  0.95093229  0.45318732     0.35180
C1673       C  0.78666607  0.82409406  0.47022968    -0.26550
C1674       C  0.78450088  0.85111069  0.50298337    -0.14620
C1675       C  0.81416484  0.84585692  0.53407677     0.36010
C1676       C  0.84353321  0.81646750  0.53079658    -0.26000
C1677       C  0.84500320  0.78875285  0.49893092    -0.15230
C1678       C  0.81536884  0.79325131  0.46827296     0.37090
N1679       N  0.81443202  0.76687477  0.43441518    -0.89490
H1680       H  0.76511926  0.82661747  0.44571326     0.18210
H1681       H  0.86664552  0.81728099  0.55368988     0.18200
N1682       N  0.81691683  0.86911149  0.57000697    -0.88510
H1683       H  0.81781635  0.78422709  0.40869843     0.35580
H1684       H  0.78614365  0.75285740  0.43281805     0.40670
H1685       H  0.79072083  0.86575701  0.58623167     0.40290
H1686       H  0.82456752  0.89883595  0.56391507     0.35180
C1687       C  0.90077448  0.73613147  0.42394559    -0.26550
C1688       C  0.90122929  0.76541167  0.45491196    -0.14620
C1689       C  0.92627702  0.79970972  0.44841587     0.36010
C1690       C  0.95609600  0.79782842  0.41973300    -0.26000
C1691       C  0.96076720  0.76510339  0.39305704    -0.15230
C1692       C  0.93142659  0.73371780  0.39533222     0.37090
N1693       N  0.93254583  0.69880717  0.37005896    -0.89490
H1694       H  0.87838301  0.71236703  0.42389009     0.18210
H1695       H  0.97669097  0.82316639  0.41862575     0.18200
N1696       N  0.92712600  0.83488889  0.47337089    -0.88510
H1697       H  0.90697444  0.68067337  0.37350094     0.35580
H1698       H  0.95680602  0.68139976  0.37912027     0.40670
H1699       H  0.90833636  0.83269494  0.49747822     0.40290
H1700       H  0.91714025  0.85891461  0.45598187     0.35180
C1701       C  0.95295732  0.75938726  0.52408644    -0.26550
C1702       C  0.91141477  0.75988896  0.53224165    -0.14620
C1703       C  0.90195115  0.75476562  0.57372219     0.36010
C1704       C  0.93283545  0.75738817  0.60333937    -0.26000
C1705       C  0.97424040  0.75974623  0.59407150    -0.15230
C1706       C  0.98187895  0.75115884  0.55326688     0.37090
N1707       N  0.01648926  0.72870223  0.54161548    -0.89490
H1708       H  0.96353849  0.75682729  0.49412500     0.18210
H1709       H  0.92401919  0.75249729  0.63381870     0.18200
N1710       N  0.86213149  0.74591247  0.58761313    -0.88510
H1711       H  0.01698397  0.72363257  0.51078428     0.35580
H1712       H  0.01443501  0.70052494  0.55511560     0.40670
H1713       H  0.84084267  0.74455347  0.56462485     0.40290
H1714       H  0.85368774  0.76924430  0.60653256     0.35180
C1715       C  0.88010676  0.64097764  0.49526346    -0.26550
C1716       C  0.83997437  0.62945531  0.50011769    -0.14620
C1717       C  0.81094528  0.65975284  0.50308369     0.36010
C1718       C  0.82341300  0.70076778  0.50181654    -0.26000
C1719       C  0.86446424  0.71226072  0.49723354    -0.15230
C1720       C  0.89260295  0.68052057  0.49408972     0.37090
N1721       N  0.93458212  0.68752324  0.48799232    -0.89490
H1722       H  0.90339172  0.61882351  0.49193967     0.18210
H1723       H  0.80080326  0.72342985  0.50515190     0.18200
N1724       N  0.76938470  0.64911391  0.50807173    -0.88510
H1725       H  0.95066967  0.67410045  0.51142417     0.35580
H1726       H  0.94273390  0.67341697  0.46144151     0.40670
H1727       H  0.75941819  0.63466432  0.48187333     0.40290
H1728       H  0.75207478  0.67490907  0.51078551     0.35180
C1729       C  0.85012652  0.50532090  0.81738781    -0.26550
C1730       C  0.83915516  0.49838470  0.77708735    -0.14620
C1731       C  0.79877127  0.48521817  0.77000261     0.36010
C1732       C  0.77076719  0.48560042  0.80101834    -0.26000
C1733       C  0.78051585  0.49772760  0.84067344    -0.15230
C1734       C  0.82246702  0.50552148  0.84848387     0.37090
N1735       N  0.83944617  0.51366264  0.88722343    -0.89490
H1736       H  0.88113074  0.51223732  0.82514304     0.18210
H1737       H  0.74079841  0.47529102  0.79306998     0.18200
N1738       N  0.78565709  0.46889416  0.73226125    -0.88510
H1739       H  0.84081149  0.48715474  0.90354007     0.35580
H1740       H  0.82434410  0.53652328  0.90163084     0.40670
H1741       H  0.76131824  0.48569916  0.72180631     0.40290
H1742       H  0.77530749  0.43953301  0.73679446     0.35180
C1743       C  0.92451935  0.39755345  0.73839687    -0.26550
C1744       C  0.96169100  0.40414628  0.75873360    -0.14620
C1745       C  0.96302864  0.43922312  0.78416756     0.36010
C1746       C  0.93449364  0.46899712  0.77972610    -0.26000
C1747       C  0.90008181  0.46356759  0.75555666    -0.15230
C1748       C  0.89203086  0.42388443  0.74261781     0.37090
N1749       N  0.85239609  0.41149625  0.72997984    -0.89490
H1750       H  0.91956634  0.37317237  0.71821286     0.18210
H1751       H  0.93986350  0.49694300  0.79563197     0.18200
N1752       N  0.99313360  0.44717809  0.81427888    -0.88510
H1753       H  0.84364392  0.38769054  0.74825539     0.35580
H1754       H  0.85328290  0.40037523  0.70079285     0.40670
H1755       H  0.00071190  0.42170555  0.83051469     0.40290
H1756       H  0.01758669  0.46101669  0.80108417     0.35180
C1757       C  0.93371896  0.53934939  0.72063375    -0.26550
C1758       C  0.90018063  0.53932402  0.74566309    -0.14620
C1759       C  0.89520024  0.57451379  0.76902616     0.36010
C1760       C  0.92700012  0.60310208  0.77216466    -0.26000
C1761       C  0.96055142  0.60332257  0.74652657    -0.15230
C1762       C  0.96162942  0.57059764  0.71864800     0.37090
N1763       N  0.99074066  0.56701032  0.68760123    -0.89490
H1764       H  0.93923950  0.51405960  0.70190735     0.18210
H1765       H  0.92422535  0.62497963  0.79513515     0.18200
N1766       N  0.85820633  0.58228440  0.78895974    -0.88510
H1767       H  0.01223665  0.54602393  0.69633839     0.35580
H1768       H  0.00448587  0.59419919  0.68066791     0.40670
H1769       H  0.83590530  0.58636548  0.76704798     0.40290
H1770       H  0.86001965  0.60906874  0.80527909     0.35180
C1771       C  0.82788023  0.52784175  0.68931524    -0.26550
C1772       C  0.85672678  0.49885714  0.70098028    -0.14620
C1773       C  0.87222223  0.47432123  0.66971677     0.36010
C1774       C  0.85255334  0.47253305  0.63307449    -0.26000
C1775       C  0.82566059  0.50197957  0.62165867    -0.15230
C1776       C  0.81288360  0.53016452  0.64970062     0.37090
N1777       N  0.78669581  0.56194569  0.63748725    -0.89490
H1778       H  0.81749155  0.54911203  0.71113814     0.18210
H1779       H  0.86410537  0.45228438  0.61062147     0.18200
N1780       N  0.91080574  0.45563488  0.67159424    -0.88510
H1781       H  0.78070559  0.58065629  0.66173901     0.35580
H1782       H  0.75926172  0.54882627  0.62850615     0.40670
H1783       H  0.92905732  0.46914021  0.65020191     0.40290
H1784       H  0.90736413  0.42561656  0.66282063     0.35180
C1785       C  0.83395173  0.54248194  0.20409803    -0.26550
C1786       C  0.83983516  0.50810844  0.22801117    -0.14620
C1787       C  0.81079932  0.47675642  0.22312881     0.36010
C1788       C  0.78079859  0.47870395  0.19315778    -0.26000
C1789       C  0.77934614  0.50981534  0.16486255    -0.15230
C1790       C  0.80396024  0.54420406  0.17393027     0.37090
N1791       N  0.79741637  0.58216283  0.15510971    -0.89490
H1792       H  0.85200733  0.56930508  0.20885371     0.18210
H1793       H  0.75968380  0.45387743  0.19060556     0.18200
N1794       N  0.81145999  0.44219088  0.24818837    -0.88510
H1795       H  0.82434104  0.59178550  0.14240278     0.35580
H1796       H  0.78995168  0.60295471  0.17713786     0.40670
H1797       H  0.81459864  0.41677433  0.23017691     0.40290
H1798       H  0.78383410  0.43994985  0.26247735     0.35180
C1799       C  0.91268840  0.45442259  0.21173379    -0.26550
C1800       C  0.89723185  0.46241376  0.24979807    -0.14620
C1801       C  0.90134497  0.42874845  0.27680637     0.36010
C1802       C  0.93015477  0.39906062  0.26939131    -0.26000
C1803       C  0.95787815  0.40233845  0.23816118    -0.15230
C1804       C  0.94572768  0.42886577  0.20676721     0.37090
N1805       N  0.96782207  0.43203438  0.17059350    -0.89490
H1806       H  0.90095159  0.46989616  0.18584115     0.18210
H1807       H  0.93016187  0.37349483  0.28895001     0.18200
N1808       N  0.87509916  0.41974345  0.30939947    -0.88510
H1809       H  0.94818966  0.42569606  0.14656799     0.35580
H1810       H  0.97810007  0.46166372  0.16783345     0.40670
H1811       H  0.84895868  0.43619707  0.31016424     0.40290
H1812       H  0.89109827  0.42272701  0.33643202     0.35180
C1813       C  0.93262807  0.54377585  0.21814814    -0.26550
C1814       C  0.90693430  0.54253820  0.25110659    -0.14620
C1815       C  0.91057843  0.57689662  0.27717920     0.36010
C1816       C  0.94397492  0.60367694  0.27484241    -0.26000
C1817       C  0.97148051  0.60246355  0.24321911    -0.15230
C1818       C  0.96537090  0.57030180  0.21507672     0.37090
N1819       N  0.99159332  0.56250147  0.18243048    -0.89490
H1820       H  0.92837174  0.52422906  0.19322306     0.18210
H1821       H  0.94705586  0.62662429  0.29748954     0.18200
N1822       N  0.87918030  0.58653394  0.30444364    -0.88510
H1823       H  0.01924318  0.55271684  0.19316438     0.35580
H1824       H  0.99518216  0.58720029  0.16395552     0.40670
H1825       H  0.85345478  0.59287948  0.28730883     0.40290
H1826       H  0.88618785  0.61246775  0.32094377     0.35180
C1827       C  0.82367534  0.51224946  0.31411197    -0.26550
C1828       C  0.86421589  0.50672619  0.30259693    -0.14620
C1829       C  0.89370913  0.50401695  0.33428459     0.36010
C1830       C  0.88226868  0.50402070  0.37356765    -0.26000
C1831       C  0.84246562  0.50815551  0.38476775    -0.15230
C1832       C  0.81260512  0.51298211  0.35477322     0.37090
N1833       N  0.77143928  0.51877456  0.36541413    -0.89490
H1834       H  0.80032022  0.51663548  0.29180024     0.18210
H1835       H  0.90609371  0.50107930  0.39588013     0.18200
N1836       N  0.93618642  0.50197077  0.32883758    -0.88510
H1837       H  0.75311701  0.52079541  0.33979705     0.35580
H1838       H  0.76987826  0.54650784  0.37996007     0.40670
H1839       H  0.94326372  0.50466965  0.29938247     0.40290
H1840       H  0.94587448  0.47383129  0.33848382     0.35180
C1841       C  0.84625685  0.18929035  0.49776685    -0.26550
C1842       C  0.83886904  0.23115142  0.49561358    -0.14620
C1843       C  0.79742241  0.24059956  0.48694919     0.36010
C1844       C  0.76749980  0.21066091  0.48690379    -0.26000
C1845       C  0.77445596  0.17002240  0.49634589    -0.15230
C1846       C  0.81575715  0.15959242  0.50037376     0.37090
N1847       N  0.82874697  0.11904577  0.50533996    -0.89490
H1848       H  0.87655147  0.17841172  0.49715911     0.18210
H1849       H  0.73797358  0.22047888  0.47774915     0.18200
N1850       N  0.78316608  0.27890718  0.47393802    -0.88510
H1851       H  0.81858435  0.10184292  0.48123171     0.35580
H1852       H  0.81765707  0.10689204  0.53155598     0.40670
H1853       H  0.80021579  0.29261409  0.45207049     0.40290
H1854       H  0.77431976  0.29703333  0.49752440     0.35180
C1855       C  0.91209351  0.22467691  0.55802239    -0.26550
C1856       C  0.90666961  0.26004053  0.53508604    -0.14620
C1857       C  0.93362204  0.29242590  0.54686273     0.36010
C1858       C  0.96270869  0.28799419  0.57786306    -0.26000
C1859       C  0.97144425  0.25121567  0.59635243    -0.15230
C1860       C  0.94593718  0.21850110  0.58379376     0.37090
N1861       N  0.95527476  0.17792601  0.59363812    -0.89490
H1862       H  0.89201757  0.19956042  0.55490505     0.18210
H1863       H  0.98033819  0.31410451  0.58617586     0.18200
N1864       N  0.93221655  0.33099877  0.52825177    -0.88510
H1865       H  0.95998685  0.16222858  0.56706514     0.35580
H1866       H  0.93027586  0.16499674  0.60734143     0.40670
H1867       H  0.96075325  0.33850887  0.51787696     0.40290
H1868       H  0.92497705  0.35220064  0.54998680     0.35180
C1869       C  0.92301388  0.26502794  0.38926466    -0.26550
C1870       C  0.96036612  0.24717299  0.39761994    -0.14620
C1871       C  0.96064333  0.21981204  0.43113643     0.36010
C1872       C  0.93167592  0.22379587  0.46071342    -0.26000
C1873       C  0.90053534  0.25175389  0.45789909    -0.15230
C1874       C  0.89186332  0.26406916  0.41776028     0.37090
N1875       N  0.85248086  0.27644769  0.40583400    -0.89490
H1876       H  0.91798728  0.27997639  0.36098499     0.18210
H1877       H  0.93626281  0.20662785  0.48759108     0.18200
N1878       N  0.99181507  0.19111192  0.43956312    -0.88510
H1879       H  0.84205087  0.25682464  0.38340844     0.35580
H1880       H  0.85456129  0.30501928  0.39316529     0.40670
H1881       H  0.01694893  0.19495862  0.42224339     0.40290
H1882       H  0.00260050  0.19604698  0.46872948     0.35180
C1883       C  0.87160936  0.33510058  0.46880077    -0.26550
C1884       C  0.86002673  0.30673232  0.49800994    -0.14620
C1885       C  0.83740370  0.32230807  0.53082118     0.36010
C1886       C  0.82479879  0.36268626  0.53060289    -0.26000
C1887       C  0.83393489  0.38860337  0.49911392    -0.15230
C1888       C  0.85747375  0.37439344  0.46783122     0.37090
N1889       N  0.86882815  0.40071907  0.43576173    -0.89490
H1890       H  0.89526206  0.32889606  0.44845850     0.18210
H1891       H  0.80899838  0.37429322  0.55611580     0.18200
N1892       N  0.82702893  0.29878871  0.56524994    -0.88510
H1893       H  0.88291368  0.38474779  0.41312178     0.35580
H1894       H  0.89029680  0.42118687  0.44695240     0.40670
H1895       H  0.83628902  0.26921365  0.56322257     0.40290
H1896       H  0.79568278  0.29761065  0.56687998     0.35180
loop_ 
_geom_bond_atom_site_label_1 
_geom_bond_atom_site_label_2 
_geom_bond_distance 
_geom_bond_site_symmetry_2 
_ccdc_geom_bond_type 
C1         C1842   1.602       .  S
C1         C1856   1.629       .  S
C1         C1873   1.592       .  S
C1         C1884   1.577       .  S
C2         C1786   1.572       .  S
C2         C1800   1.608       .  S
C2         C1814   1.616       .  S
C2         C1828   1.560       .  S
C3         C1730   1.572       .  S
C3         C1747   1.558       .  S
C3         C1758   1.580       .  S
C3         C1772   1.562       .  S
C4         C1677   1.580       .  S
C4         C1688   1.586       .  S
C4         C1702   1.592       .  S
C4         C1719   1.573       .  S
O5           V13   1.915       .  S
O5           C15   1.265       .  A
O6           V13   1.911       .  S
O6           C16   1.264       .  A
O7           V13   1.940       .  S
O7           C17   1.272       .  A
O8           V13   1.937       .  S
O8           C18   1.274       .  A
O9           V14   1.870       .  S
O9           C18   1.255       .  A
O10          V14   1.848       .  S
O10          C17   1.256       .  A
O11          V14   1.854       .  S
O11          C16   1.258       .  A
O12          V14   1.862       .  S
O12          C15   1.261       .  A
V13          V14   2.084       .  T
C15        C1831   1.481       .  S
C16        C1775   1.454       .  S
C17        C1716   1.492       .  S
C18        C1887   1.478       .  S
C19        C1618   1.564       .  S
C19        C1632   1.599       .  S
C19        C1649   1.592       .  S
C19        C1660   1.564       .  S
C20        C1565   1.590       .  S
C20        C1576   1.602       .  S
C20        C1590   1.571       .  S
C20        C1604   1.552       .  S
C21        C1509   1.598       .  S
C21        C1520   1.581       .  S
C21        C1537   1.582       .  S
C21        C1548   1.546       .  S
C22        C1464   1.614       .  S
C22        C1478   1.610       .  S
C22        C1492   1.570       .  S
C22        C1674   1.577       .  S
O23          V31   1.884       .  S
O23          C33   1.257       .  A
O24          V31   1.884       .  S
O24          C34   1.257       .  A
O25          V31   1.948       .  S
O25          C35   1.276       .  A
O26          V31   1.942       .  S
O26          C36   1.275       .  A
O27          V32   1.829       .  S
O27          C36   1.247       .  A
O28          V32   1.832       .  S
O28          C35   1.251       .  A
O29          V32   1.880       .  S
O29          C34   1.262       .  A
O30          V32   1.879       .  S
O30          C33   1.262       .  A
V31          V32   2.084       .  T
C33        C1607   1.445       .  S
C34        C1551   1.445       .  S
C35        C1663   1.484       .  S
C36        C1495   1.483       .  S
C37        C1411   1.594       .  S
C37        C1422   1.573       .  S
C37        C1436   1.570       .  S
C37        C1450   1.560       .  S
C38        C1352   1.586       .  S
C38        C1366   1.608       .  S
C38        C1380   1.615       .  S
C38        C1397   1.591       .  S
C39        C1310   1.599       .  S
C39        C1324   1.588       .  S
C39        C1338   1.582       .  S
C39        C1733   1.582       .  S
C40        C1268   1.585       .  S
C40        C1282   1.585       .  S
C40        C1296   1.565       .  S
C40        C1506   1.588       .  S
O41          V49   1.896       .  S
O41          C51   1.267       .  A
O42          V49   1.900       .  S
O42          C52   1.266       .  A
O43          V49   1.854       .  S
O43          C53   1.253       .  A
O44          V49   1.865       .  S
O44          C54   1.255       .  A
O45          V50   1.945       .  S
O45          C54   1.277       .  A
O46          V50   1.930       .  S
O46          C53   1.272       .  A
O47          V50   1.889       .  S
O47          C52   1.258       .  A
O48          V50   1.885       .  S
O48          C51   1.257       .  A
V49          V50   2.084       .  T
C51        C1299   1.458       .  S
C52        C1453   1.459       .  S
C53        C1341   1.468       .  S
C54        C1394   1.495       .  S
C55        C1229   1.582       .  S
C55        C1243   1.608       .  S
C55        C1254   1.555       .  S
C55        C1534   1.602   1_545  S
C56        C1184   1.626   1_556  S
C56        C1198   1.612   1_556  S
C56        C1212   1.608       .  S
C56        C1285   1.576       .  S
C57        C1142   1.585       .  S
C57        C1156   1.608   1_556  S
C57        C1170   1.556       .  S
C57        C1439   1.578       .  S
C58        C1100   1.584       .  S
C58        C1114   1.576       .  S
C58        C1131   1.577       .  S
C58        C1593   1.574   1_545  S
O59          V67   1.928   1_554  S
O59          C69   1.271       .  A
O60          V67   1.920       .  S
O60          C70   1.272       .  A
O61          V67   1.939   1_565  S
O61          C71   1.271   1_556  A
O62          V67   1.930       .  S
O62          C72   1.273       .  A
O63          V68   1.848   1_556  S
O63          C72   1.257       .  A
O64          V68   1.860   1_565  S
O64          C71   1.261       .  A
O65          V68   1.870   1_566  S
O65          C70   1.259   1_565  A
O66          V68   1.859       .  S
O66          C69   1.256       .  A
V67          V68   2.055   1_556  T
C69        C1128   1.462       .  S
C70        C1257   1.483   1_545  S
C71        C1215   1.486       .  S
C72        C1173   1.482       .  S
C73        C1058   1.583       .  S
C73        C1072   1.587   1_655  S
C73        C1089   1.597       .  S
C73        C1761   1.586       .  S
C74        C1016   1.578       .  S
C74        C1030   1.580   1_556  S
C74        C1044   1.574       .  S
C74        C1327   1.580       .  S
C75         C988   1.585       .  S
C75        C1002   1.579       .  S
C75        C1187   1.597       .  S
C75        C1369   1.613   1_554  S
C76         C946   1.598       .  S
C76         C960   1.585       .  S
C76         C974   1.578   1_455  S
C76        C1817   1.586   1_455  S
O77          V85   1.907   1_554  S
O77          C87   1.264       .  A
O78          V85   1.910   1_655  S
O78          C88   1.264   1_655  A
O79          V85   1.919   1_655  S
O79          C89   1.268       .  A
O80          V85   1.921       .  S
O80          C90   1.268       .  A
O81          V86   1.872       .  S
O81          C90   1.259       .  A
O82          V86   1.871   1_655  S
O82          C89   1.258       .  A
O83          V86   1.893       .  S
O83          C88   1.264       .  A
O84          V86   1.893   1_554  S
O84          C87   1.264       .  A
V85          V86   2.088       .  T
C87         C977   1.471       .  S
C88        C1086   1.474       .  S
C89        C1047   1.469       .  S
C90        C1005   1.467   1_556  S
C91         C918   1.605   1_556  S
C91         C932   1.589       .  S
C91        C1019   1.602       .  S
C91        C1271   1.578       .  S
C92         C879   1.595       .  S
C92         C890   1.576       .  S
C92         C907   1.570       .  S
C92        C1523   1.592   1_545  S
C93         C834   1.603       .  S
C93         C848   1.570       .  S
C93         C865   1.590       .  S
C93        C1425   1.600   1_554  S
C94         C792   1.589       .  S
C94         C809   1.615       .  S
C94         C820   1.573       .  S
C94        C1579   1.600   1_545  S
O95         V103   1.934   1_564  S
O95         C105   1.272       .  A
O96         V103   1.929       .  S
O96         C106   1.270       .  A
O97         V103   1.905   1_554  S
O97         C107   1.264   1_554  A
O98         V103   1.917   1_565  S
O98         C108   1.266       .  A
O99         V104   1.866       .  S
O99         C108   1.258       .  A
O100        V104   1.874   1_545  S
O100        C107   1.261       .  A
O101        V104   1.851       .  S
O101        C106   1.256   1_565  A
O102        V104   1.860   1_554  S
O102        C105   1.259       .  A
V103        V104   2.081   1_545  T
C105        C823   1.493   1_565  S
C106        C904   1.479       .  S
C107        C862   1.468   1_556  S
C108        C935   1.462       .  S
C109        C753   1.593       .  S
C109        C764   1.587       .  S
C109        C778   1.548       .  S
C109        C991   1.590       .  S
C110        C725   1.592       .  S
C110        C736   1.553       .  S
C110        C851   1.576       .  S
C110       C1159   1.586       .  S
C111        C708   1.577       .  S
C111        C921   1.610       .  S
C111       C1201   1.607       .  S
C111       C1562   1.596       .  S
C112        C680   1.585       .  S
C112        C694   1.566       .  S
C112       C1033   1.576       .  S
C112       C1789   1.570       .  S
O113        V121   1.892       .  S
O113        C123   1.266       .  A
O114        V121   1.899       .  S
O114        C124   1.263       .  A
O115        V121   1.902       .  S
O115        C125   1.263       .  A
O116        V121   1.892       .  S
O116        C126   1.260       .  A
O117        V122   1.880       .  S
O117        C126   1.261       .  A
O118        V122   1.879       .  S
O118        C125   1.262       .  A
O119        V122   1.865       .  S
O119        C124   1.257       .  A
O120        V122   1.869       .  S
O120        C123   1.256       .  A
V121        V122   2.088       .  T
C123        C711   1.460       .  S
C124        C739   1.445       .  S
C125        C697   1.460       .  S
C126        C781   1.446       .  S
C127        C666   1.605       .  S
C127        C683   1.602       .  S
C127        C837   1.632       .  S
C127       C1313   1.603   1_554  S
C128        C624   1.593       .  S
C128        C641   1.587   1_655  S
C128        C652   1.565       .  S
C128       C1744   1.589       .  S
C129        C610   1.558       .  S
C129        C767   1.587       .  S
C129       C1145   1.580       .  S
C129       C1383   1.628   1_554  S
C130        C568   1.582       .  S
C130        C585   1.582       .  S
C130        C596   1.557       .  S
C130       C1803   1.598   1_455  S
O131        V139   1.891   1_554  S
O131        C141   1.260       .  A
O132        V139   1.898       .  S
O132        C142   1.261   1_455  A
O133        V139   1.926   1_554  S
O133        C143   1.270   1_554  A
O134        V139   1.924   1_655  S
O134        C144   1.269   1_556  A
O135        V140   1.851       .  S
O135        C144   1.255   1_556  A
O136        V140   1.852   1_455  S
O136        C143   1.256       .  A
O137        V140   1.869       .  S
O137        C142   1.259       .  A
O138        V140   1.878   1_454  S
O138        C141   1.261       .  A
V139        V140   2.089   1_455  T
C141        C599   1.449       .  S
C142        C655   1.448       .  S
C143        C613   1.478   1_556  S
C144        C669   1.464       .  S
C145        C543   1.578       .  S
C145        C554   1.589       .  S
C145        C876   1.603       .  S
C145       C1481   1.616   1_545  S
C146        C512   1.568       .  S
C146        C526   1.586       .  S
C146       C1061   1.585       .  S
C146       C1705   1.606   1_455  S
C147        C487   1.568       .  S
C147        C498   1.572       .  S
C147        C627   1.586       .  S
C147       C1859   1.603   1_455  S
C148        C459   1.604       .  S
C148        C470   1.570       .  S
C148       C1226   1.578       .  S
C148       C1635   1.601   1_545  S
O149        V157   1.852   1_455  S
O149        C159   1.253       .  A
O150        V157   1.842       .  S
O150        C160   1.253       .  A
O151        V157   1.891       .  S
O151        C161   1.264   1_655  A
O152        V157   1.881   1_565  S
O152        C162   1.259       .  A
O153        V158   1.894   1_565  S
O153        C162   1.261       .  A
O154        V158   1.888   1_455  S
O154        C161   1.258       .  A
O155        V158   1.926       .  S
O155        C160   1.269       .  A
O156        V158   1.933   1_455  S
O156        C159   1.273       .  A
V157        V158   2.088       .  T
C159        C473   1.484       .  S
C160        C557   1.466       .  S
C161        C501   1.453       .  S
C162        C529   1.451       .  S
C163        C417   1.572       .  S
C163        C431   1.579       .  S
C163        C442   1.572       .  S
C163        C484   1.581       .  S
C164        C403   1.585       .  S
C164        C582   1.580       .  S
C164        C750   1.598       .  S
C164        C963   1.598       .  S
C165        C386   1.616       .  S
C165        C638   1.626       .  S
C165       C1075   1.576       .  S
C165       C1355   1.606       .  S
C166        C361   1.624       .  S
C166        C372   1.588       .  S
C166        C515   1.605       .  S
C166       C1621   1.555       .  S
O167        V175   1.920       .  S
O167        C177   1.268       .  A
O168        V175   1.923       .  S
O168        C178   1.268       .  A
O169        V175   1.933       .  S
O169        C179   1.270       .  A
O170        V175   1.928       .  S
O170        C180   1.272       .  A
O171        V176   1.850       .  S
O171        C180   1.254       .  A
O172        V176   1.844       .  S
O172        C179   1.257       .  A
O173        V176   1.879       .  S
O173        C178   1.263       .  A
O174        V176   1.871       .  S
O174        C177   1.258       .  A
V175        V176   2.076       .  T
C177        C400   1.464       .  S
C178        C389   1.489       .  S
C179        C445   1.480       .  S
C180        C375   1.476       .  S
C181        C333   1.596       .  S
C181        C347   1.584       .  S
C181        C414   1.582       .  S
C181        C456   1.582       .  S
C182        C316   1.589       .  S
C182        C722   1.583       .  S
C182        C806   1.617       .  S
C182       C1117   1.593       .  S
C183        C302   1.579       .  S
C183        C893   1.608       .  S
C183       C1240   1.596       .  S
C183       C1408   1.616       .  S
C184        C277   1.590       .  S
C184        C288   1.562       .  S
C184        C540   1.575       .  S
C184       C1845   1.586       .  S
O185        V193   1.906       .  S
O185        C195   1.262       .  A
O186        V193   1.909       .  S
O186        C196   1.265       .  A
O187        V193   1.917       .  S
O187        C197   1.268       .  A
O188        V193   1.912       .  S
O188        C198   1.266       .  A
O189        V194   1.871       .  S
O189        C198   1.258       .  A
O190        V194   1.872       .  S
O190        C197   1.257       .  A
O191        V194   1.885       .  S
O191        C196   1.261       .  A
O192        V194   1.867       .  S
O192        C195   1.264       .  A
V193        V194   2.088       .  T
C195        C319   1.486       .  S
C196        C305   1.466       .  S
C197        C291   1.464       .  S
C198        C344   1.464       .  S
C199        C263   1.571       .  S
C199        C358   1.595   1_655  S
C199        C949   1.589   1_655  S
C199       C1691   1.579       .  S
C200        C246   1.569       .  S
C200        C274   1.610       .  S
C200        C795   1.609       .  S
C200       C1467   1.612   1_545  S
C201        C235   1.562       .  S
C201        C330   1.602       .  S
C201       C1103   1.582       .  S
C201       C1646   1.599   1_545  S
C202        C218   1.587   1_655  S
C202        C428   1.578   1_655  S
C202        C571   1.599       .  S
C202       C1870   1.584       .  S
O203        V211   1.907       .  S
O203        C213   1.264       .  A
O204        V211   1.910   1_655  S
O204        C214   1.265       .  A
O205        V211   1.901       .  S
O205        C215   1.264       .  A
O206        V211   1.908   1_665  S
O206        C216   1.264   1_655  A
O207        V212   1.887   1_565  S
O207        C216   1.261       .  A
O208        V212   1.891       .  S
O208        C215   1.262       .  A
O209        V212   1.878   1_655  S
O209        C214   1.263       .  A
O210        V212   1.879       .  S
O210        C213   1.259       .  A
V211        V212   2.089       .  T
C213        C232   1.458       .  S
C214        C249   1.484       .  S
C215        C221   1.465       .  S
C216        C260   1.465   1_455  S
C217        C218   1.423   1_655  A
C217        C222   1.400       .  A
C217        H224   1.083       .  S
C218        C219   1.431       .  A
C219        C220   1.404       .  A
C219        N226   1.428       .  S
C220        C221   1.391       .  A
C220        H225   1.085       .  S
C221        C222   1.408   1_455  A
C222        N223   1.439       .  S
N223        H227   1.046       .  S
N223        H228   1.043       .  S
N226        H229   1.045       .  S
N226        H230   1.045       .  S
C231        C232   1.397       .  A
C231        C236   1.403       .  A
C231        H238   1.084       .  S
C232        C233   1.402   1_545  A
C233        C234   1.398       .  A
C233        N240   1.439       .  S
C234        C235   1.417   1_565  A
C234        H239   1.081       .  S
C235        C236   1.423       .  A
C236        N237   1.431       .  S
N237        H241   1.046       .  S
N237        H242   1.045       .  S
N240        H243   1.045       .  S
N240        H244   1.046       .  S
C245        C246   1.419       .  A
C245        C250   1.409   1_545  A
C245        H252   1.079   1_545  S
C246        C247   1.429       .  A
C247        C248   1.389       .  A
C247        N254   1.432       .  S
C248        C249   1.396       .  A
C248        H253   1.085       .  S
C249        C250   1.419   1_545  A
C250        N251   1.439       .  S
N251        H255   1.046       .  S
N251        H256   1.038       .  S
N254        H257   1.046       .  S
N254        H258   1.044       .  S
C259        C260   1.400   1_455  A
C259        C264   1.411       .  A
C259        H266   1.083       .  S
C260        C261   1.405       .  A
C261        C262   1.391       .  A
C261        N268   1.440       .  S
C262        C263   1.420       .  A
C262        H267   1.080       .  S
C263        C264   1.425   1_655  A
C264        N265   1.436       .  S
N265        H269   1.046       .  S
N265        H270   1.044       .  S
N268        H271   1.043       .  S
N268        H272   1.046       .  S
C273        C274   1.435       .  A
C273        C278   1.423       .  A
C273        H280   1.073       .  S
C274        C275   1.425       .  A
C275        C276   1.390       .  A
C275        N282   1.422   1_545  S
C276        C277   1.402       .  A
C276        H281   1.062       .  S
C277        C278   1.417       .  A
C278        N279   1.431       .  S
N279        H283   1.045       .  S
N279        H284   1.046       .  S
N282        H285   1.045   1_565  S
N282        H286   1.042       .  S
C287        C288   1.413       .  A
C287        C292   1.398       .  A
C287        H294   1.077       .  S
C288        C289   1.430       .  A
C289        C290   1.401       .  A
C289        N296   1.433       .  S
C290        C291   1.392       .  A
C290        H295   1.084       .  S
C291        C292   1.414       .  A
C292        N293   1.440       .  S
N293        H297   1.046       .  S
N293        H298   1.043       .  S
N296        H299   1.046       .  S
N296        H300   1.046       .  S
C301        C302   1.413       .  A
C301        C306   1.402       .  A
C301        H308   1.070       .  S
C302        C303   1.434       .  A
C303        C304   1.400       .  A
C303        N310   1.426       .  S
C304        C305   1.388       .  A
C304        H309   1.085       .  S
C305        C306   1.406       .  A
C306        N307   1.438       .  S
N307        H311   1.043       .  S
N307        H312   1.044       .  S
N310        H313   1.046       .  S
N310        H314   1.046       .  S
C315        C316   1.423       .  A
C315        C320   1.410       .  A
C315        H322   1.076       .  S
C316        C317   1.441       .  A
C317        C318   1.376       .  A
C317        N324   1.431       .  S
C318        C319   1.390       .  A
C318        H323   1.085       .  S
C319        C320   1.419       .  A
C320        N321   1.438       .  S
N321        H325   1.046       .  S
N321        H326   1.036       .  S
N324        H327   1.028       .  S
N324        H328   1.045       .  S
C329        C330   1.410       .  A
C329        C334   1.395       .  A
C329        H336   1.074       .  S
C330        C331   1.430       .  A
C331        C332   1.412       .  A
C331        N338   1.436       .  S
C332        C333   1.422       .  A
C332        H337   1.072       .  S
C333        C334   1.434       .  A
C334        N335   1.435       .  S
N335        H339   1.041       .  S
N335        H340   1.037       .  S
N338        H341   1.041       .  S
N338        H342   1.044       .  S
C343        C344   1.399       .  A
C343        C348   1.409       .  A
C343        H350   1.084       .  S
C344        C345   1.404       .  A
C345        C346   1.382       .  A
C345        N352   1.440       .  S
C346        C347   1.421       .  A
C346        H351   1.078       .  S
C347        C348   1.440       .  A
C348        N349   1.437       .  S
N349        H353   1.045       .  S
N349        H354   1.036       .  S
N352        H355   1.041       .  S
N352        H356   1.046       .  S
C357        C358   1.417       .  A
C357        C362   1.422       .  A
C357        H364   1.079       .  S
C358        C359   1.413       .  A
C359        C360   1.407       .  A
C359        N366   1.431       .  S
C360        C361   1.427       .  A
C360        H365   1.066       .  S
C361        C362   1.440       .  A
C362        N363   1.430       .  S
N363        H367   1.045       .  S
N363        H368   1.044       .  S
N366        H369   1.046       .  S
N366        H370   1.046       .  S
C371        C372   1.416       .  A
C371        C376   1.385       .  A
C371        H378   1.080       .  S
C372        C373   1.438       .  A
C373        C374   1.412       .  A
C373        N380   1.429       .  S
C374        C375   1.397       .  A
C374        H379   1.084       .  S
C375        C376   1.408       .  A
C376        N377   1.441       .  S
N377        H381   1.046       .  S
N377        H382   1.045       .  S
N380        H383   1.046       .  S
N380        H384   1.046       .  S
C385        C386   1.425       .  A
C385        C390   1.380       .  A
C385        H392   1.076       .  S
C386        C387   1.441       .  A
C387        C388   1.430       .  A
C387        N394   1.431       .  S
C388        C389   1.406       .  A
C388        H393   1.083       .  S
C389        C390   1.396       .  A
C390        N391   1.437       .  S
N391        H395   1.046       .  S
N391        H396   1.046       .  S
N394        H397   1.046       .  S
N394        H398   1.046       .  S
C399        C400   1.389       .  A
C399        C404   1.393       .  A
C399        H406   1.086       .  S
C400        C401   1.399       .  A
C401        C402   1.410       .  A
C401        N408   1.437       .  S
C402        C403   1.428       .  A
C402        H407   1.084       .  S
C403        C404   1.438       .  A
C404        N405   1.429       .  S
N405        H409   1.046       .  S
N405        H410   1.046       .  S
N408        H411   1.046       .  S
N408        H412   1.046       .  S
C413        C414   1.413       .  A
C413        C418   1.401       .  A
C413        H420   1.076       .  S
C414        C415   1.432       .  A
C415        C416   1.417       .  A
C415        N422   1.441       .  S
C416        C417   1.413       .  A
C416        H421   1.083       .  S
C417        C418   1.422       .  A
C418        N419   1.429       .  S
N419        H423   1.046       .  S
N419        H424   1.045       .  S
N422        H425   1.042       .  S
N422        H426   1.045       .  S
C427        C428   1.410       .  A
C427        C432   1.422       .  A
C427        H434   1.082       .  S
C428        C429   1.420       .  A
C429        C430   1.367       .  A
C429        N436   1.440   1_455  S
C430        C431   1.406       .  A
C430        H435   1.071       .  S
C431        C432   1.442       .  A
C432        N433   1.438       .  S
N433        H437   1.045       .  S
N433        H438   1.038       .  S
N436        H439   1.030       .  S
N436        H440   1.041       .  S
C441        C442   1.425       .  A
C441        C446   1.423       .  A
C441        H448   1.079       .  S
C442        C443   1.431       .  A
C443        C444   1.371       .  A
C443        N450   1.431       .  S
C444        C445   1.391       .  A
C444        H449   1.085       .  S
C445        C446   1.408       .  A
C446        N447   1.435       .  S
N447        H451   1.045       .  S
N447        H452   1.045       .  S
N450        H453   1.045       .  S
N450        H454   1.046       .  S
C455        C456   1.422       .  A
C455        C460   1.404       .  A
C455        H462   1.084       .  S
C456        C457   1.429       .  A
C457        C458   1.404       .  A
C457        N464   1.434       .  S
C458        C459   1.428       .  A
C458        H463   1.082       .  S
C459        C460   1.415       .  A
C460        N461   1.427       .  S
N461        H465   1.046       .  S
N461        H466   1.046       .  S
N464        H467   1.040       .  S
N464        H468   1.038       .  S
C469        C470   1.415       .  A
C469        C474   1.386       .  A
C469        H476   1.084       .  S
C470        C471   1.430       .  A
C471        C472   1.414       .  A
C471        N478   1.429   1_545  S
C472        C473   1.401       .  A
C472        H477   1.083       .  S
C473        C474   1.415       .  A
C474        N475   1.441       .  S
N475        H479   1.046       .  S
N475        H480   1.046       .  S
N478        H481   1.046       .  S
N478        H482   1.046   1_565  S
C483        C484   1.410       .  A
C483        C488   1.410       .  A
C483        H490   1.080       .  S
C484        C485   1.416       .  A
C485        C486   1.405       .  A
C485        N492   1.431       .  S
C486        C487   1.418       .  A
C486        H491   1.083       .  S
C487        C488   1.427       .  A
C488        N489   1.438       .  S
N489        H493   1.046       .  S
N489        H494   1.041       .  S
N492        H495   1.044       .  S
N492        H496   1.045       .  S
C497        C498   1.420   1_655  A
C497        C502   1.402       .  A
C497        H504   1.078       .  S
C498        C499   1.449       .  A
C499        C500   1.388       .  A
C499        N506   1.441       .  S
C500        C501   1.384       .  A
C500        H505   1.086       .  S
C501        C502   1.406   1_455  A
C502        N503   1.438       .  S
N503        H507   1.045       .  S
N503        H508   1.043       .  S
N506        H509   1.030       .  S
N506        H510   1.046       .  S
C511        C512   1.424       .  A
C511        C516   1.396       .  A
C511        H518   1.084       .  S
C512        C513   1.416       .  A
C513        C514   1.414       .  A
C513        N520   1.433       .  S
C514        C515   1.430       .  A
C514        H519   1.081       .  S
C515        C516   1.415       .  A
C516        N517   1.430       .  S
N517        H521   1.042       .  S
N517        H522   1.039       .  S
N520        H523   1.045       .  S
N520        H524   1.045       .  S
C525        C526   1.417   1_655  A
C525        C530   1.401       .  A
C525        H532   1.065       .  S
C526        C527   1.449       .  A
C527        C528   1.391       .  A
C527        N534   1.438       .  S
C528        C529   1.383   1_455  A
C528        H533   1.086       .  S
C529        C530   1.403       .  A
C530        N531   1.439       .  S
N531        H535   1.046       .  S
N531        H536   1.044       .  S
N534        H537   1.046       .  S
N534        H538   1.046       .  S
C539        C540   1.407       .  A
C539        C544   1.409       .  A
C539        H546   1.082       .  S
C540        C541   1.429       .  A
C541        C542   1.405       .  A
C541        N548   1.433       .  S
C542        C543   1.409       .  A
C542        H547   1.083       .  S
C543        C544   1.428       .  A
C544        N545   1.434       .  S
N545        H549   1.045       .  S
N545        H550   1.046       .  S
N548        H551   1.045       .  S
N548        H552   1.044       .  S
C553        C554   1.411       .  A
C553        C558   1.375       .  A
C553        H560   1.068       .  S
C554        C555   1.443       .  A
C555        C556   1.419       .  A
C555        N562   1.433       .  S
C556        C557   1.394       .  A
C556        H561   1.083   1_545  S
C557        C558   1.398       .  A
C558        N559   1.437       .  S
N559        H563   1.046       .  S
N559        H564   1.046       .  S
N562        H565   1.046       .  S
N562        H566   1.046       .  S
C567        C568   1.408   1_655  A
C567        C572   1.409       .  A
C567        H574   1.085       .  S
C568        C569   1.430       .  A
C569        C570   1.403       .  A
C569        N576   1.435       .  S
C570        C571   1.423   1_455  A
C570        H575   1.078       .  S
C571        C572   1.437       .  A
C572        N573   1.424       .  S
N573        H577   1.041   1_655  S
N573        H578   1.041       .  S
N576        H579   1.043       .  S
N576        H580   1.040       .  S
C581        C582   1.399       .  A
C581        C586   1.377       .  A
C581        H588   1.069       .  S
C582        C583   1.440       .  A
C583        C584   1.427       .  A
C583        N590   1.436       .  S
C584        C585   1.424       .  A
C584        H589   1.080       .  S
C585        C586   1.399       .  A
C586        N587   1.414   1_455  S
N587        H591   1.043   1_655  S
N587        H592   1.043       .  S
N590        H593   1.038       .  S
N590        H594   1.045       .  S
C595        C596   1.421       .  A
C595        C600   1.380       .  A
C595        H602   1.070       .  S
C596        C597   1.430   1_455  A
C597        C598   1.407       .  A
C597        N604   1.440       .  S
C598        C599   1.398   1_655  A
C598        H603   1.084       .  S
C599        C600   1.398       .  A
C600        N601   1.441       .  S
N601        H605   1.046       .  S
N601        H606   1.043       .  S
N604        H607   1.043       .  S
N604        H608   1.045       .  S
C609        C610   1.422       .  A
C609        C614   1.413   1_554  A
C609        H616   1.080   1_554  S
C610        C611   1.442       .  A
C611        C612   1.380       .  A
C611        N618   1.447       .  S
C612        C613   1.398       .  A
C612        H617   1.085       .  S
C613        C614   1.405   1_554  A
C614        N615   1.437       .  S
N615        H619   1.046       .  S
N615        H620   1.046       .  S
N618        H621   1.038       .  S
N618        H622   1.046       .  S
C623        C624   1.415   1_455  A
C623        C628   1.396       .  A
C623        H630   1.080       .  S
C624        C625   1.434       .  A
C625        C626   1.416       .  A
C625        N632   1.438       .  S
C626        C627   1.420   1_655  A
C626        H631   1.081       .  S
C627        C628   1.430       .  A
C628        N629   1.429       .  S
N629        H633   1.036       .  S
N629        H634   1.042       .  S
N632        H635   1.035       .  S
N632        H636   1.046       .  S
C637        C638   1.421       .  A
C637        C642   1.397       .  A
C637        H644   1.049       .  S
C638        C639   1.439       .  A
C639        C640   1.425       .  A
C639        N646   1.425       .  S
C640        C641   1.416       .  A
C640        H645   1.075       .  S
C641        C642   1.421       .  A
C642        N643   1.444       .  S
N643        H647   1.045   1_455  S
N643        H648   1.036   1_455  S
N646        H649   1.046       .  S
N646        H650   1.046       .  S
C651        C652   1.424       .  A
C651        C656   1.380       .  A
C651        H658   1.079       .  S
C652        C653   1.427   1_655  A
C653        C654   1.405       .  A
C653        N660   1.429       .  S
C654        C655   1.395   1_455  A
C654        H659   1.084       .  S
C655        C656   1.399       .  A
C656        N657   1.440       .  S
N657        H661   1.046       .  S
N657        H662   1.044       .  S
N660        H663   1.046       .  S
N660        H664   1.046       .  S
C665        C666   1.421       .  A
C665        C670   1.384       .  A
C665        H672   1.066       .  S
C666        C667   1.441   1_554  A
C667        C668   1.415       .  A
C667        N674   1.421       .  S
C668        C669   1.389   1_556  A
C668        H673   1.084       .  S
C669        C670   1.393       .  A
C670        N671   1.438       .  S
N671        H675   1.046       .  S
N671        H676   1.046       .  S
N674        H677   1.046       .  S
N674        H678   1.046       .  S
C679        C680   1.427       .  A
C679        C684   1.419       .  A
C679        H686   1.082       .  S
C680        C681   1.427       .  A
C681        C682   1.399       .  A
C681        N688   1.432       .  S
C682        C683   1.416       .  A
C682        H687   1.079       .  S
C683        C684   1.421       .  A
C684        N685   1.438       .  S
N685        H689   1.045       .  S
N685        H690   1.045       .  S
N688        H691   1.043       .  S
N688        H692   1.041       .  S
C693        C694   1.417       .  A
C693        C698   1.406       .  A
C693        H700   1.084       .  S
C694        C695   1.429       .  A
C695        C696   1.389       .  A
C695        N702   1.431       .  S
C696        C697   1.388       .  A
C696        H701   1.085       .  S
C697        C698   1.412       .  A
C698        N699   1.437       .  S
N699        H703   1.045       .  S
N699        H704   1.043       .  S
N702        H705   1.045       .  S
N702        H706   1.046       .  S
C707        C708   1.420       .  A
C707        C712   1.387       .  A
C707        H714   1.072       .  S
C708        C709   1.437       .  A
C709        C710   1.389       .  A
C709        N716   1.419       .  S
C710        C711   1.388       .  A
C710        H715   1.086       .  S
C711        C712   1.410       .  A
C712        N713   1.443       .  S
N713        H717   1.046       .  S
N713        H718   1.038       .  S
N716        H719   1.041       .  S
N716        H720   1.039       .  S
C721        C722   1.415       .  A
C721        C726   1.398       .  A
C721        H728   1.076       .  S
C722        C723   1.426       .  A
C723        C724   1.418       .  A
C723        N730   1.442       .  S
C724        C725   1.421       .  A
C724        H729   1.080       .  S
C725        C726   1.434       .  A
C726        N727   1.440       .  S
N727        H731   1.044       .  S
N727        H732   1.035       .  S
N730        H733   1.042       .  S
N730        H734   1.045       .  S
C735        C736   1.413       .  A
C735        C740   1.397       .  A
C735        H742   1.075       .  S
C736        C737   1.434       .  A
C737        C738   1.391       .  A
C737        N744   1.432       .  S
C738        C739   1.388       .  A
C738        H743   1.085       .  S
C739        C740   1.405       .  A
C740        N741   1.438       .  S
N741        H745   1.046       .  S
N741        H746   1.044       .  S
N744        H747   1.046       .  S
N744        H748   1.046       .  S
C749        C750   1.411       .  A
C749        C754   1.398       .  A
C749        H756   1.073       .  S
C750        C751   1.439       .  A
C751        C752   1.421       .  A
C751        N758   1.435       .  S
C752        C753   1.417       .  A
C752        H757   1.084       .  S
C753        C754   1.430       .  A
C754        N755   1.434       .  S
N755        H759   1.046       .  S
N755        H760   1.046       .  S
N758        H761   1.041       .  S
N758        H762   1.043       .  S
C763        C764   1.405       .  A
C763        C768   1.405       .  A
C763        H770   1.077       .  S
C764        C765   1.440       .  A
C765        C766   1.402       .  A
C765        N772   1.435       .  S
C766        C767   1.396       .  A
C766        H771   1.069       .  S
C767        C768   1.440       .  A
C768        N769   1.435       .  S
N769        H773   1.046       .  S
N769        H774   1.046       .  S
N772        H775   1.046       .  S
N772        H776   1.046       .  S
C777        C778   1.411       .  A
C777        C782   1.382       .  A
C777        H784   1.073       .  S
C778        C779   1.431       .  A
C779        C780   1.402       .  A
C779        N786   1.434       .  S
C780        C781   1.393       .  A
C780        H785   1.083       .  S
C781        C782   1.393       .  A
C782        N783   1.430       .  S
N783        H787   1.045       .  S
N783        H788   1.043       .  S
N786        H789   1.045       .  S
N786        H790   1.046       .  S
C791        C792   1.409       .  A
C791        C796   1.414       .  A
C791        H798   1.081       .  S
C792        C793   1.432   1_545  A
C793        C794   1.415       .  A
C793        N800   1.431       .  S
C794        C795   1.420   1_565  A
C794        H799   1.082       .  S
C795        C796   1.431       .  A
C796        N797   1.428       .  S
N797        H801   1.046       .  S
N797        H802   1.046       .  S
N800        H803   1.042       .  S
N800        H804   1.040       .  S
C805        C806   1.424       .  A
C805        C810   1.415       .  A
C805        H812   1.072       .  S
C806        C807   1.431       .  A
C807        C808   1.417       .  A
C807        N814   1.434       .  S
C808        C809   1.427       .  A
C808        H813   1.079       .  S
C809        C810   1.417       .  A
C810        N811   1.429       .  S
N811        H815   1.046       .  S
N811        H816   1.046       .  S
N814        H817   1.046       .  S
N814        H818   1.045       .  S
C819        C820   1.424       .  A
C819        C824   1.420   1_545  A
C819        H826   1.079   1_545  S
C820        C821   1.442       .  A
C821        C822   1.384       .  A
C821        N828   1.445       .  S
C822        C823   1.399       .  A
C822        H827   1.084       .  S
C823        C824   1.409   1_545  A
C824        N825   1.436       .  S
N825        H829   1.046       .  S
N825        H830   1.045   1_565  S
N828        H831   1.037       .  S
N828        H832   1.046   1_545  S
C833        C834   1.408       .  A
C833        C838   1.404       .  A
C833        H840   1.076       .  S
C834        C835   1.434   1_554  A
C835        C836   1.415       .  A
C835        N842   1.445       .  S
C836        C837   1.424   1_556  A
C836        H841   1.056       .  S
C837        C838   1.447       .  A
C838        N839   1.425       .  S
N839        H843   1.039       .  S
N839        H844   1.042       .  S
N842        H845   1.039       .  S
N842        H846   1.046       .  S
C847        C848   1.402       .  A
C847        C852   1.395       .  A
C847        H854   1.077       .  S
C848        C849   1.429       .  A
C849        C850   1.408       .  A
C849        N856   1.443       .  S
C850        C851   1.417       .  A
C850        H855   1.071       .  S
C851        C852   1.429       .  A
C852        N853   1.427       .  S
N853        H857   1.046       .  S
N853        H858   1.046       .  S
N856        H859   1.041       .  S
N856        H860   1.043       .  S
C861        C862   1.388       .  A
C861        C866   1.389       .  A
C861        H868   1.086       .  S
C862        C863   1.407   1_554  A
C863        C864   1.403       .  A
C863        N870   1.438       .  S
C864        C865   1.423   1_556  A
C864        H869   1.071       .  S
C865        C866   1.450       .  A
C866        N867   1.441       .  S
N867        H871   1.046       .  S
N867        H872   1.045       .  S
N870        H873   1.041       .  S
N870        H874   1.045       .  S
C875        C876   1.414       .  A
C875        C880   1.391       .  A
C875        H882   1.075       .  S
C876        C877   1.443   1_545  A
C877        C878   1.421       .  A
C877        N884   1.441       .  S
C878        C879   1.421   1_565  A
C878        H883   1.084       .  S
C879        C880   1.427       .  A
C880        N881   1.430       .  S
N881        H885   1.046       .  S
N881        H886   1.046       .  S
N884        H887   1.041       .  S
N884        H888   1.046       .  S
C889        C890   1.402       .  A
C889        C894   1.405       .  A
C889        H896   1.073       .  S
C890        C891   1.430       .  A
C891        C892   1.407       .  A
C891        N898   1.436       .  S
C892        C893   1.420       .  A
C892        H897   1.078       .  S
C893        C894   1.427       .  A
C894        N895   1.421       .  S
N895        H899   1.045       .  S
N895        H900   1.046       .  S
N898        H901   1.046       .  S
N898        H902   1.045       .  S
C903        C904   1.398       .  A
C903        C908   1.388       .  A
C903        H910   1.085       .  S
C904        C905   1.409       .  A
C905        C906   1.409       .  A
C905        N912   1.437   1_545  S
C906        C907   1.424       .  A
C906        H911   1.073       .  S
C907        C908   1.440       .  A
C908        N909   1.447       .  S
N909        H913   1.045       .  S
N909        H914   1.041       .  S
N912        H915   1.041       .  S
N912        H916   1.046   1_565  S
C917        C918   1.417       .  A
C917        C922   1.428       .  A
C917        H924   1.082       .  S
C918        C919   1.429       .  A
C919        C920   1.402       .  A
C919        N926   1.434   1_554  S
C920        C921   1.420       .  A
C920        H925   1.066       .  S
C921        C922   1.418       .  A
C922        N923   1.436       .  S
N923        H927   1.046       .  S
N923        H928   1.044       .  S
N926        H929   1.037       .  S
N926        H930   1.046   1_556  S
C931        C932   1.410   1_554  A
C931        C936   1.383       .  A
C931        H938   1.053       .  S
C932        C933   1.436       .  A
C933        C934   1.415       .  A
C933        N940   1.434       .  S
C934        C935   1.399       .  A
C934        H939   1.084       .  S
C935        C936   1.393   1_556  A
C936        N937   1.437       .  S
N937        H941   1.045       .  S
N937        H942   1.046       .  S
N940        H943   1.046       .  S
N940        H944   1.046       .  S
C945        C946   1.415   1_655  A
C945        C950   1.408       .  A
C945        H952   1.074       .  S
C946        C947   1.442       .  A
C947        C948   1.409       .  A
C947        N954   1.434       .  S
C948        C949   1.413       .  A
C948        H953   1.080       .  S
C949        C950   1.431   1_455  A
C950        N951   1.432       .  S
N951        H955   1.042       .  S
N951        H956   1.040       .  S
N954        H957   1.042       .  S
N954        H958   1.041       .  S
C959        C960   1.411       .  A
C959        C964   1.402       .  A
C959        H966   1.084       .  S
C960        C961   1.435       .  A
C961        C962   1.417       .  A
C961        N968   1.427       .  S
C962        C963   1.410       .  A
C962        H967   1.078       .  S
C963        C964   1.433       .  A
C964        N965   1.431       .  S
N965        H969   1.044       .  S
N965        H970   1.046       .  S
N968        H971   1.046       .  S
N968        H972   1.046       .  S
C973        C974   1.415   1_455  A
C973        C978   1.411       .  A
C973        H980   1.080       .  S
C974        C975   1.446       .  A
C975        C976   1.393       .  A
C975        N982   1.439       .  S
C976        C977   1.389   1_655  A
C976        H981   1.086       .  S
C977        C978   1.413       .  A
C978        N979   1.437       .  S
N979        H983   1.045       .  S
N979        H984   1.043       .  S
N982        H985   1.035       .  S
N982        H986   1.045       .  S
C987        C988   1.408       .  A
C987        C992   1.426       .  A
C987        H994   1.072       .  S
C988        C989   1.410       .  A
C989        C990   1.391       .  A
C989        N996   1.435       .  S
C990        C991   1.415       .  A
C990        H995   1.064       .  S
C991        C992   1.434       .  A
C992        N993   1.438       .  S
N993        H997   1.045       .  S
N993        H998   1.043       .  S
N996        H999   1.045   1_554  S
N996       H1000   1.045       .  S
C1001      C1002   1.426   1_556  A
C1001      C1006   1.408       .  A
C1001      H1008   1.082       .  S
C1002      C1003   1.441       .  A
C1003      C1004   1.396       .  A
C1003      N1010   1.426       .  S
C1004      C1005   1.388       .  A
C1004      H1009   1.086       .  S
C1005      C1006   1.396   1_554  A
C1006      N1007   1.431       .  S
N1007      H1011   1.045       .  S
N1007      H1012   1.045       .  S
N1010      H1013   1.046       .  S
N1010      H1014   1.046       .  S
C1015      C1016   1.406       .  A
C1015      C1020   1.406       .  A
C1015      H1022   1.076       .  S
C1016      C1017   1.421       .  A
C1017      C1018   1.412       .  A
C1017      N1024   1.432       .  S
C1018      C1019   1.423       .  A
C1018      H1023   1.074       .  S
C1019      C1020   1.428       .  A
C1020      N1021   1.422   1_556  S
N1021      H1025   1.046       .  S
N1021      H1026   1.046   1_554  S
N1024      H1027   1.045       .  S
N1024      H1028   1.046       .  S
C1029      C1030   1.419       .  A
C1029      C1034   1.403       .  A
C1029      H1036   1.080       .  S
C1030      C1031   1.425       .  A
C1031      C1032   1.411       .  A
C1031      N1038   1.436       .  S
C1032      C1033   1.417       .  A
C1032      H1037   1.071       .  S
C1033      C1034   1.418       .  A
C1034      N1035   1.434       .  S
N1035      H1039   1.045       .  S
N1035      H1040   1.041       .  S
N1038      H1041   1.044       .  S
N1038      H1042   1.046       .  S
C1043      C1044   1.417       .  A
C1043      C1048   1.389       .  A
C1043      H1050   1.074       .  S
C1044      C1045   1.428   1_556  A
C1045      C1046   1.412       .  A
C1045      N1052   1.432       .  S
C1046      C1047   1.400   1_554  A
C1046      H1051   1.084       .  S
C1047      C1048   1.400       .  A
C1048      N1049   1.436       .  S
N1049      H1053   1.046       .  S
N1049      H1054   1.046       .  S
N1052      H1055   1.045       .  S
N1052      H1056   1.046       .  S
C1057      C1058   1.412   1_455  A
C1057      C1062   1.408       .  A
C1057      H1064   1.082       .  S
C1058      C1059   1.436       .  A
C1059      C1060   1.403       .  A
C1059      N1066   1.433       .  S
C1060      C1061   1.414   1_655  A
C1060      H1065   1.078       .  S
C1061      C1062   1.423       .  A
C1062      N1063   1.423       .  S
N1063      H1067   1.046       .  S
N1063      H1068   1.046       .  S
N1066      H1069   1.043       .  S
N1066      H1070   1.039       .  S
C1071      C1072   1.426       .  A
C1071      C1076   1.404       .  A
C1071      H1078   1.084       .  S
C1072      C1073   1.431       .  A
C1073      C1074   1.393       .  A
C1073      N1080   1.428       .  S
C1074      C1075   1.417       .  A
C1074      H1079   1.083       .  S
C1075      C1076   1.413       .  A
C1076      N1077   1.434       .  S
N1077      H1081   1.046       .  S
N1077      H1082   1.044       .  S
N1080      H1083   1.041       .  S
N1080      H1084   1.042       .  S
C1085      C1086   1.403   1_655  A
C1085      C1090   1.416       .  A
C1085      H1092   1.084       .  S
C1086      C1087   1.402       .  A
C1087      C1088   1.388       .  A
C1087      N1094   1.441       .  S
C1088      C1089   1.427   1_455  A
C1088      H1093   1.080       .  S
C1089      C1090   1.438       .  A
C1090      N1091   1.440       .  S
N1091      H1095   1.046       .  S
N1091      H1096   1.038       .  S
N1094      H1097   1.042       .  S
N1094      H1098   1.045       .  S
C1099      C1100   1.417       .  A
C1099      C1104   1.412       .  A
C1099      H1106   1.069       .  S
C1100      C1101   1.421   1_545  A
C1101      C1102   1.407   1_565  A
C1101      N1108   1.433       .  S
C1102      C1103   1.421       .  A
C1102      H1107   1.078   1_545  S
C1103      C1104   1.430       .  A
C1104      N1105   1.440       .  S
N1105      H1109   1.046   1_545  S
N1105      H1110   1.040       .  S
N1108      H1111   1.046       .  S
N1108      H1112   1.046       .  S
C1113      C1114   1.410       .  A
C1113      C1118   1.390       .  A
C1113      H1120   1.067       .  S
C1114      C1115   1.425       .  A
C1115      C1116   1.419       .  A
C1115      N1122   1.436       .  S
C1116      C1117   1.427       .  A
C1116      H1121   1.082       .  S
C1117      C1118   1.412       .  A
C1118      N1119   1.423       .  S
N1119      H1123   1.035       .  S
N1119      H1124   1.043       .  S
N1122      H1125   1.042       .  S
N1122      H1126   1.045       .  S
C1127      C1128   1.390   1_565  A
C1127      C1132   1.385       .  A
C1127      H1134   1.087       .  S
C1128      C1129   1.402       .  A
C1129      C1130   1.415       .  A
C1129      N1136   1.436       .  S
C1130      C1131   1.425       .  A
C1130      H1135   1.077       .  S
C1131      C1132   1.432   1_545  A
C1132      N1133   1.434       .  S
N1133      H1137   1.044       .  S
N1133      H1138   1.046       .  S
N1136      H1139   1.046       .  S
N1136      H1140   1.046       .  S
C1141      C1142   1.411   1_554  A
C1141      C1146   1.416       .  A
C1141      H1148   1.083       .  S
C1142      C1143   1.432       .  A
C1143      C1144   1.406       .  A
C1143      N1150   1.427       .  S
C1144      C1145   1.403   1_556  A
C1144      H1149   1.081       .  S
C1145      C1146   1.429       .  A
C1146      N1147   1.433       .  S
N1147      H1151   1.045       .  S
N1147      H1152   1.044       .  S
N1150      H1153   1.045       .  S
N1150      H1154   1.046       .  S
C1155      C1156   1.414       .  A
C1155      C1160   1.421       .  A
C1155      H1162   1.083       .  S
C1156      C1157   1.433       .  A
C1157      C1158   1.405       .  A
C1157      N1164   1.437       .  S
C1158      C1159   1.406       .  A
C1158      H1163   1.083       .  S
C1159      C1160   1.438       .  A
C1160      N1161   1.432       .  S
N1161      H1165   1.046       .  S
N1161      H1166   1.045       .  S
N1164      H1167   1.046       .  S
N1164      H1168   1.046       .  S
C1169      C1170   1.421       .  A
C1169      C1174   1.405       .  A
C1169      H1176   1.079   1_556  S
C1170      C1171   1.443       .  A
C1171      C1172   1.381       .  A
C1171      N1178   1.449       .  S
C1172      C1173   1.400       .  A
C1172      H1177   1.084       .  S
C1173      C1174   1.408       .  A
C1174      N1175   1.431   1_556  S
N1175      H1179   1.045       .  S
N1175      H1180   1.045   1_554  S
N1178      H1181   1.037       .  S
N1178      H1182   1.046   1_556  S
C1183      C1184   1.419       .  A
C1183      C1188   1.417       .  A
C1183      H1190   1.083       .  S
C1184      C1185   1.442   1_554  A
C1185      C1186   1.416       .  A
C1185      N1192   1.433       .  S
C1186      C1187   1.406   1_556  A
C1186      H1191   1.078       .  S
C1187      C1188   1.441       .  A
C1188      N1189   1.433       .  S
N1189      H1193   1.037       .  S
N1189      H1194   1.042       .  S
N1192      H1195   1.046       .  S
N1192      H1196   1.046       .  S
C1197      C1198   1.420       .  A
C1197      C1202   1.420       .  A
C1197      H1204   1.069       .  S
C1198      C1199   1.440       .  A
C1199      C1200   1.403       .  A
C1199      N1206   1.427       .  S
C1200      C1201   1.395       .  A
C1200      H1205   1.077       .  S
C1201      C1202   1.437       .  A
C1202      N1203   1.433       .  S
N1203      H1207   1.046       .  S
N1203      H1208   1.046       .  S
N1206      H1209   1.037       .  S
N1206      H1210   1.040       .  S
C1211      C1212   1.435       .  A
C1211      C1216   1.430   1_556  A
C1211      H1218   1.075       .  S
C1212      C1213   1.434       .  A
C1213      C1214   1.376       .  A
C1213      N1220   1.421       .  S
C1214      C1215   1.383   1_556  A
C1214      H1219   1.086       .  S
C1215      C1216   1.405       .  A
C1216      N1217   1.435       .  S
N1217      H1221   1.045       .  S
N1217      H1222   1.045   1_554  S
N1220      H1223   1.047       .  S
N1220      H1224   1.046       .  S
C1225      C1226   1.416   1_565  A
C1225      C1230   1.415       .  A
C1225      H1232   1.081       .  S
C1226      C1227   1.423       .  A
C1227      C1228   1.410       .  A
C1227      N1234   1.429       .  S
C1228      C1229   1.415       .  A
C1228      H1233   1.083       .  S
C1229      C1230   1.424   1_545  A
C1230      N1231   1.432       .  S
N1231      H1235   1.046       .  S
N1231      H1236   1.045       .  S
N1234      H1237   1.046       .  S
N1234      H1238   1.046       .  S
C1239      C1240   1.416       .  A
C1239      C1244   1.404       .  A
C1239      H1246   1.080       .  S
C1240      C1241   1.442       .  A
C1241      C1242   1.410       .  A
C1241      N1248   1.435       .  S
C1242      C1243   1.411       .  A
C1242      H1247   1.082       .  S
C1243      C1244   1.432       .  A
C1244      N1245   1.436       .  S
N1245      H1249   1.044       .  S
N1245      H1250   1.043       .  S
N1248      H1251   1.046       .  S
N1248      H1252   1.045       .  S
C1253      C1254   1.413       .  A
C1253      C1258   1.391   1_545  A
C1253      H1260   1.084       .  S
C1254      C1255   1.426       .  A
C1255      C1256   1.409       .  A
C1255      N1262   1.429       .  S
C1256      C1257   1.402   1_545  A
C1256      H1261   1.084       .  S
C1257      C1258   1.414       .  A
C1258      N1259   1.440       .  S
N1259      H1263   1.046       .  S
N1259      H1264   1.046       .  S
N1262      H1265   1.046       .  S
N1262      H1266   1.045   1_545  S
C1267      C1268   1.408       .  A
C1267      C1272   1.402       .  A
C1267      H1274   1.084       .  S
C1268      C1269   1.436       .  A
C1269      C1270   1.411       .  A
C1269      N1276   1.427       .  S
C1270      C1271   1.405       .  A
C1270      H1275   1.076       .  S
C1271      C1272   1.431       .  A
C1272      N1273   1.430       .  S
N1273      H1277   1.037       .  S
N1273      H1278   1.046       .  S
N1276      H1279   1.046       .  S
N1276      H1280   1.046       .  S
C1281      C1282   1.422       .  A
C1281      C1286   1.404       .  A
C1281      H1288   1.082       .  S
C1282      C1283   1.429       .  A
C1283      C1284   1.404       .  A
C1283      N1290   1.430       .  S
C1284      C1285   1.414       .  A
C1284      H1289   1.081       .  S
C1285      C1286   1.430       .  A
C1286      N1287   1.442       .  S
N1287      H1291   1.046       .  S
N1287      H1292   1.039   1_556  S
N1290      H1293   1.042       .  S
N1290      H1294   1.044       .  S
C1295      C1296   1.415       .  A
C1295      C1300   1.409       .  A
C1295      H1302   1.080       .  S
C1296      C1297   1.433       .  A
C1297      C1298   1.386       .  A
C1297      N1304   1.436       .  S
C1298      C1299   1.389       .  A
C1298      H1303   1.086       .  S
C1299      C1300   1.415       .  A
C1300      N1301   1.437       .  S
N1301      H1305   1.045       .  S
N1301      H1306   1.043       .  S
N1304      H1307   1.037       .  S
N1304      H1308   1.042       .  S
C1309      C1310   1.405       .  A
C1309      C1314   1.398       .  A
C1309      H1316   1.079       .  S
C1310      C1311   1.430       .  A
C1311      C1312   1.416       .  A
C1311      N1318   1.437       .  S
C1312      C1313   1.419       .  A
C1312      H1317   1.062       .  S
C1313      C1314   1.431       .  A
C1314      N1315   1.425   1_556  S
N1315      H1319   1.044       .  S
N1315      H1320   1.046   1_554  S
N1318      H1321   1.036       .  S
N1318      H1322   1.045       .  S
C1323      C1324   1.416       .  A
C1323      C1328   1.391       .  A
C1323      H1330   1.078       .  S
C1324      C1325   1.442       .  A
C1325      C1326   1.420       .  A
C1325      N1332   1.437       .  S
C1326      C1327   1.416       .  A
C1326      H1331   1.084       .  S
C1327      C1328   1.416       .  A
C1328      N1329   1.430   1_556  S
N1329      H1333   1.043       .  S
N1329      H1334   1.046   1_554  S
N1332      H1335   1.031       .  S
N1332      H1336   1.046       .  S
C1337      C1338   1.415       .  A
C1337      C1342   1.391       .  A
C1337      H1344   1.073       .  S
C1338      C1339   1.435       .  A
C1339      C1340   1.410       .  A
C1339      N1346   1.428       .  S
C1340      C1341   1.392       .  A
C1340      H1345   1.084       .  S
C1341      C1342   1.406       .  A
C1342      N1343   1.442       .  S
N1343      H1347   1.046       .  S
N1343      H1348   1.043       .  S
N1346      H1349   1.046       .  S
N1346      H1350   1.046       .  S
C1351      C1352   1.403       .  A
C1351      C1356   1.396       .  A
C1351      H1358   1.076       .  S
C1352      C1353   1.427       .  A
C1353      C1354   1.427       .  A
C1353      N1360   1.434       .  S
C1354      C1355   1.424       .  A
C1354      H1359   1.084       .  S
C1355      C1356   1.445       .  A
C1356      N1357   1.430       .  S
N1357      H1361   1.041       .  S
N1357      H1362   1.043       .  S
N1360      H1363   1.044       .  S
N1360      H1364   1.045       .  S
C1365      C1366   1.410       .  A
C1365      C1370   1.402       .  A
C1365      H1372   1.070       .  S
C1366      C1367   1.442       .  A
C1367      C1368   1.421       .  A
C1367      N1374   1.438       .  S
C1368      C1369   1.417       .  A
C1368      H1373   1.081       .  S
C1369      C1370   1.440       .  A
C1370      N1371   1.437   1_556  S
N1371      H1375   1.046   1_554  S
N1371      H1376   1.028       .  S
N1374      H1377   1.040       .  S
N1374      H1378   1.045       .  S
C1379      C1380   1.426       .  A
C1379      C1384   1.420       .  A
C1379      H1386   1.069       .  S
C1380      C1381   1.433       .  A
C1381      C1382   1.407       .  A
C1381      N1388   1.434       .  S
C1382      C1383   1.428       .  A
C1382      H1387   1.077       .  S
C1383      C1384   1.425       .  A
C1384      N1385   1.430       .  S
N1385      H1389   1.046       .  S
N1385      H1390   1.046       .  S
N1388      H1391   1.035       .  S
N1388      H1392   1.042       .  S
C1393      C1394   1.397       .  A
C1393      C1398   1.417       .  A
C1393      H1400   1.084       .  S
C1394      C1395   1.413       .  A
C1395      C1396   1.396       .  A
C1395      N1402   1.434       .  S
C1396      C1397   1.414       .  A
C1396      H1401   1.081       .  S
C1397      C1398   1.440       .  A
C1398      N1399   1.429       .  S
N1399      H1403   1.045       .  S
N1399      H1404   1.046       .  S
N1402      H1405   1.046       .  S
N1402      H1406   1.046       .  S
C1407      C1408   1.411       .  A
C1407      C1412   1.402       .  A
C1407      H1414   1.075       .  S
C1408      C1409   1.443       .  A
C1409      C1410   1.412       .  A
C1409      N1416   1.427       .  S
C1410      C1411   1.410       .  A
C1410      H1415   1.079       .  S
C1411      C1412   1.433       .  A
C1412      N1413   1.434       .  S
N1413      H1417   1.044       .  S
N1413      H1418   1.043       .  S
N1416      H1419   1.041       .  S
N1416      H1420   1.044       .  S
C1421      C1422   1.401       .  A
C1421      C1426   1.393       .  A
C1421      H1428   1.085       .  S
C1422      C1423   1.427       .  A
C1423      C1424   1.411       .  A
C1423      N1430   1.428       .  S
C1424      C1425   1.423       .  A
C1424      H1429   1.080       .  S
C1425      C1426   1.427       .  A
C1426      N1427   1.417       .  S
N1427      H1431   1.046       .  S
N1427      H1432   1.047       .  S
N1430      H1433   1.046       .  S
N1430      H1434   1.046       .  S
C1435      C1436   1.402       .  A
C1435      C1440   1.404       .  A
C1435      H1442   1.078       .  S
C1436      C1437   1.432       .  A
C1437      C1438   1.398       .  A
C1437      N1444   1.431       .  S
C1438      C1439   1.399       .  A
C1438      H1443   1.074       .  S
C1439      C1440   1.440       .  A
C1440      N1441   1.436       .  S
N1441      H1445   1.046       .  S
N1441      H1446   1.045       .  S
N1444      H1447   1.045       .  S
N1444      H1448   1.046       .  S
C1449      C1450   1.408       .  A
C1449      C1454   1.411       .  A
C1449      H1456   1.084       .  S
C1450      C1451   1.434       .  A
C1451      C1452   1.386       .  A
C1451      N1458   1.432       .  S
C1452      C1453   1.382       .  A
C1452      H1457   1.085       .  S
C1453      C1454   1.418       .  A
C1454      N1455   1.437       .  S
N1455      H1459   1.045       .  S
N1455      H1460   1.044       .  S
N1458      H1461   1.046       .  S
N1458      H1462   1.044       .  S
C1463      C1464   1.426       .  A
C1463      C1468   1.413       .  A
C1463      H1470   1.077       .  S
C1464      C1465   1.424       .  A
C1465      C1466   1.421       .  A
C1465      N1472   1.443       .  S
C1466      C1467   1.429       .  A
C1466      H1471   1.073       .  S
C1467      C1468   1.430       .  A
C1468      N1469   1.435       .  S
N1469      H1473   1.045       .  S
N1469      H1474   1.046       .  S
N1472      H1475   1.042       .  S
N1472      H1476   1.045       .  S
C1477      C1478   1.403       .  A
C1477      C1482   1.412       .  A
C1477      H1484   1.069       .  S
C1478      C1479   1.439       .  A
C1479      C1480   1.416       .  A
C1479      N1486   1.436       .  S
C1480      C1481   1.413       .  A
C1480      H1485   1.072       .  S
C1481      C1482   1.442       .  A
C1482      N1483   1.425   1_565  S
N1483      H1487   1.042       .  S
N1483      H1488   1.047       .  S
N1486      H1489   1.046       .  S
N1486      H1490   1.045       .  S
C1491      C1492   1.411       .  A
C1491      C1496   1.379       .  A
C1491      H1498   1.084       .  S
C1492      C1493   1.433       .  A
C1493      C1494   1.415       .  A
C1493      N1500   1.429       .  S
C1494      C1495   1.401       .  A
C1494      H1499   1.083       .  S
C1495      C1496   1.418       .  A
C1496      N1497   1.443       .  S
N1497      H1501   1.046       .  S
N1497      H1502   1.046       .  S
N1500      H1503   1.046       .  S
N1500      H1504   1.046       .  S
C1505      C1506   1.412       .  A
C1505      C1510   1.407       .  A
C1505      H1512   1.076       .  S
C1506      C1507   1.437       .  A
C1507      C1508   1.408       .  A
C1507      N1514   1.434       .  S
C1508      C1509   1.417       .  A
C1508      H1513   1.079       .  S
C1509      C1510   1.434       .  A
C1510      N1511   1.434       .  S
N1511      H1515   1.043       .  S
N1511      H1516   1.040       .  S
N1514      H1517   1.043       .  S
N1514      H1518   1.041       .  S
C1519      C1520   1.405       .  A
C1519      C1524   1.399       .  A
C1519      H1526   1.083       .  S
C1520      C1521   1.438       .  A
C1521      C1522   1.411       .  A
C1521      N1528   1.432       .  S
C1522      C1523   1.412       .  A
C1522      H1527   1.083       .  S
C1523      C1524   1.430       .  A
C1524      N1525   1.432       .  S
N1525      H1529   1.046       .  S
N1525      H1530   1.046       .  S
N1528      H1531   1.046       .  S
N1528      H1532   1.045       .  S
C1533      C1534   1.402       .  A
C1533      C1538   1.401       .  A
C1533      H1540   1.070       .  S
C1534      C1535   1.447       .  A
C1535      C1536   1.411       .  A
C1535      N1542   1.436       .  S
C1536      C1537   1.402       .  A
C1536      H1541   1.080       .  S
C1537      C1538   1.431       .  A
C1538      N1539   1.428       .  S
N1539      H1543   1.043       .  S
N1539      H1544   1.046       .  S
N1542      H1545   1.046       .  S
N1542      H1546   1.046       .  S
C1547      C1548   1.416       .  A
C1547      C1552   1.383       .  A
C1547      H1554   1.079       .  S
C1548      C1549   1.427       .  A
C1549      C1550   1.403       .  A
C1549      N1556   1.438       .  S
C1550      C1551   1.395       .  A
C1550      H1555   1.084       .  S
C1551      C1552   1.402       .  A
C1552      N1553   1.441       .  S
N1553      H1557   1.046       .  S
N1553      H1558   1.043       .  S
N1556      H1559   1.043       .  S
N1556      H1560   1.046       .  S
C1561      C1562   1.413       .  A
C1561      C1566   1.406       .  A
C1561      H1568   1.065       .  S
C1562      C1563   1.437       .  A
C1563      C1564   1.407       .  A
C1563      N1570   1.436       .  S
C1564      C1565   1.415       .  A
C1564      H1569   1.080       .  S
C1565      C1566   1.430       .  A
C1566      N1567   1.437       .  S
N1567      H1571   1.046       .  S
N1567      H1572   1.029       .  S
N1570      H1573   1.046       .  S
N1570      H1574   1.045       .  S
C1575      C1576   1.405       .  A
C1575      C1580   1.404       .  A
C1575      H1582   1.082       .  S
C1576      C1577   1.442       .  A
C1577      C1578   1.417       .  A
C1577      N1584   1.433       .  S
C1578      C1579   1.408       .  A
C1578      H1583   1.074       .  S
C1579      C1580   1.437       .  A
C1580      N1581   1.439       .  S
N1581      H1585   1.046       .  S
N1581      H1586   1.043       .  S
N1584      H1587   1.046       .  S
N1584      H1588   1.046       .  S
C1589      C1590   1.401       .  A
C1589      C1594   1.379       .  A
C1589      H1596   1.070       .  S
C1590      C1591   1.426       .  A
C1591      C1592   1.427       .  A
C1591      N1598   1.432       .  S
C1592      C1593   1.417       .  A
C1592      H1597   1.082       .  S
C1593      C1594   1.412       .  A
C1594      N1595   1.419   1_565  S
N1595      H1599   1.042       .  S
N1595      H1600   1.047   1_545  S
N1598      H1601   1.046       .  S
N1598      H1602   1.045       .  S
C1603      C1604   1.417       .  A
C1603      C1608   1.399       .  A
C1603      H1610   1.081       .  S
C1604      C1605   1.436       .  A
C1605      C1606   1.383       .  A
C1605      N1612   1.436       .  S
C1606      C1607   1.387       .  A
C1606      H1611   1.086       .  S
C1607      C1608   1.407       .  A
C1608      N1609   1.438       .  S
N1609      H1613   1.045       .  S
N1609      H1614   1.043       .  S
N1612      H1615   1.046       .  S
N1612      H1616   1.046       .  S
C1617      C1618   1.417       .  A
C1617      C1622   1.407       .  A
C1617      H1624   1.080       .  S
C1618      C1619   1.416       .  A
C1619      C1620   1.400       .  A
C1619      N1626   1.433       .  S
C1620      C1621   1.415       .  A
C1620      H1625   1.080       .  S
C1621      C1622   1.419       .  A
C1622      N1623   1.435       .  S
N1623      H1627   1.045       .  S
N1623      H1628   1.044       .  S
N1626      H1629   1.045       .  S
N1626      H1630   1.046       .  S
C1631      C1632   1.409       .  A
C1631      C1636   1.407       .  A
C1631      H1638   1.077       .  S
C1632      C1633   1.437       .  A
C1633      C1634   1.410       .  A
C1633      N1640   1.437       .  S
C1634      C1635   1.409       .  A
C1634      H1639   1.080       .  S
C1635      C1636   1.432       .  A
C1636      N1637   1.434       .  S
N1637      H1641   1.046       .  S
N1637      H1642   1.046       .  S
N1640      H1643   1.045       .  S
N1640      H1644   1.046       .  S
C1645      C1646   1.418       .  A
C1645      C1650   1.398       .  A
C1645      H1652   1.070       .  S
C1646      C1647   1.428       .  A
C1647      C1648   1.412       .  A
C1647      N1654   1.436       .  S
C1648      C1649   1.423       .  A
C1648      H1653   1.081       .  S
C1649      C1650   1.419       .  A
C1650      N1651   1.430       .  S
N1651      H1655   1.044       .  S
N1651      H1656   1.042       .  S
N1654      H1657   1.045       .  S
N1654      H1658   1.045       .  S
C1659      C1660   1.428       .  A
C1659      C1664   1.416       .  A
C1659      H1666   1.078       .  S
C1660      C1661   1.436       .  A
C1661      C1662   1.380       .  A
C1661      N1668   1.445       .  S
C1662      C1663   1.403       .  A
C1662      H1667   1.085       .  S
C1663      C1664   1.402       .  A
C1664      N1665   1.436       .  S
N1665      H1669   1.046       .  S
N1665      H1670   1.046       .  S
N1668      H1671   1.038       .  S
N1668      H1672   1.045       .  S
C1673      C1674   1.420       .  A
C1673      C1678   1.414       .  A
C1673      H1680   1.084       .  S
C1674      C1675   1.433       .  A
C1675      C1676   1.398       .  A
C1675      N1682   1.429       .  S
C1676      C1677   1.410       .  A
C1676      H1681   1.075       .  S
C1677      C1678   1.419       .  A
C1678      N1679   1.431       .  S
N1679      H1683   1.046       .  S
N1679      H1684   1.046       .  S
N1682      H1685   1.040       .  S
N1682      H1686   1.041       .  S
C1687      C1688   1.421       .  A
C1687      C1692   1.415       .  A
C1687      H1694   1.080       .  S
C1688      C1689   1.425       .  A
C1689      C1690   1.395       .  A
C1689      N1696   1.437       .  S
C1690      C1691   1.419       .  A
C1690      H1695   1.082       .  S
C1691      C1692   1.425       .  A
C1692      N1693   1.437       .  S
N1693      H1697   1.045       .  S
N1693      H1698   1.041       .  S
N1696      H1699   1.032       .  S
N1696      H1700   1.046       .  S
C1701      C1702   1.414       .  A
C1701      C1706   1.389       .  A
C1701      H1708   1.072       .  S
C1702      C1703   1.440       .  A
C1703      C1704   1.416       .  A
C1703      N1710   1.439       .  S
C1704      C1705   1.419       .  A
C1704      H1709   1.079       .  S
C1705      C1706   1.423       .  A
C1706      N1707   1.440   1_655  S
N1707      H1711   1.046       .  S
N1707      H1712   1.046       .  S
N1710      H1713   1.036       .  S
N1710      H1714   1.046       .  S
C1715      C1716   1.397       .  A
C1715      C1720   1.378       .  A
C1715      H1722   1.084       .  S
C1716      C1717   1.411       .  A
C1717      C1718   1.424       .  A
C1717      N1724   1.436       .  S
C1718      C1719   1.425       .  A
C1718      H1723   1.080       .  S
C1719      C1720   1.426       .  A
C1720      N1721   1.431       .  S
N1721      H1725   1.046       .  S
N1721      H1726   1.046       .  S
N1724      H1727   1.045       .  S
N1724      H1728   1.046       .  S
C1729      C1730   1.408       .  A
C1729      C1734   1.402       .  A
C1729      H1736   1.081       .  S
C1730      C1731   1.423       .  A
C1731      C1732   1.408       .  A
C1731      N1738   1.432       .  S
C1732      C1733   1.417       .  A
C1732      H1737   1.079       .  S
C1733      C1734   1.435       .  A
C1734      N1735   1.428       .  S
N1735      H1739   1.041       .  S
N1735      H1740   1.040       .  S
N1738      H1741   1.046       .  S
N1738      H1742   1.046       .  S
C1743      C1744   1.415       .  A
C1743      C1748   1.410       .  A
C1743      H1750   1.064       .  S
C1744      C1745   1.444       .  A
C1745      C1746   1.389       .  A
C1745      N1752   1.429       .  S
C1746      C1747   1.399       .  A
C1746      H1751   1.082       .  S
C1747      C1748   1.411       .  A
C1748      N1749   1.432       .  S
N1749      H1753   1.045       .  S
N1749      H1754   1.045       .  S
N1752      H1755   1.041   1_655  S
N1752      H1756   1.037   1_655  S
C1757      C1758   1.408       .  A
C1757      C1762   1.389       .  A
C1757      H1764   1.069       .  S
C1758      C1759   1.421       .  A
C1759      C1760   1.417       .  A
C1759      N1766   1.437       .  S
C1760      C1761   1.420       .  A
C1760      H1765   1.064       .  S
C1761      C1762   1.434       .  A
C1762      N1763   1.439       .  S
N1763      H1767   1.045   1_655  S
N1763      H1768   1.039   1_655  S
N1766      H1769   1.044       .  S
N1766      H1770   1.045       .  S
C1771      C1772   1.421       .  A
C1771      C1776   1.411       .  A
C1771      H1778   1.081       .  S
C1772      C1773   1.433       .  A
C1773      C1774   1.380       .  A
C1773      N1780   1.434       .  S
C1774      C1775   1.386       .  A
C1774      H1779   1.087       .  S
C1775      C1776   1.401       .  A
C1776      N1777   1.436       .  S
N1777      H1781   1.046       .  S
N1777      H1782   1.045       .  S
N1780      H1783   1.046       .  S
N1780      H1784   1.046       .  S
C1785      C1786   1.413       .  A
C1785      C1790   1.408       .  A
C1785      H1792   1.080       .  S
C1786      C1787   1.421       .  A
C1787      C1788   1.404       .  A
C1787      N1794   1.427       .  S
C1788      C1789   1.407       .  A
C1788      H1793   1.080       .  S
C1789      C1790   1.428       .  A
C1790      N1791   1.433       .  S
N1791      H1795   1.046       .  S
N1791      H1796   1.046       .  S
N1794      H1797   1.045       .  S
N1794      H1798   1.046       .  S
C1799      C1800   1.409       .  A
C1799      C1804   1.411       .  A
C1799      H1806   1.079       .  S
C1800      C1801   1.450       .  A
C1801      C1802   1.411       .  A
C1801      N1808   1.440       .  S
C1802      C1803   1.410       .  A
C1802      H1807   1.076       .  S
C1803      C1804   1.431       .  A
C1804      N1805   1.431       .  S
N1805      H1809   1.046       .  S
N1805      H1810   1.046       .  S
N1808      H1811   1.035       .  S
N1808      H1812   1.045       .  S
C1813      C1814   1.408       .  A
C1813      C1818   1.399       .  A
C1813      H1820   1.063       .  S
C1814      C1815   1.440       .  A
C1815      C1816   1.419       .  A
C1815      N1822   1.438       .  S
C1816      C1817   1.413       .  A
C1816      H1821   1.078       .  S
C1817      C1818   1.435       .  A
C1818      N1819   1.436       .  S
N1819      H1823   1.038   1_655  S
N1819      H1824   1.038       .  S
N1822      H1825   1.046       .  S
N1822      H1826   1.046       .  S
C1827      C1828   1.423       .  A
C1827      C1832   1.417       .  A
C1827      H1834   1.079       .  S
C1828      C1829   1.435       .  A
C1829      C1830   1.376       .  A
C1829      N1836   1.430       .  S
C1830      C1831   1.391       .  A
C1830      H1835   1.084       .  S
C1831      C1832   1.410       .  A
C1832      N1833   1.437       .  S
N1833      H1837   1.046       .  S
N1833      H1838   1.046       .  S
N1836      H1839   1.022       .  S
N1836      H1840   1.046       .  S
C1841      C1842   1.422       .  A
C1841      C1846   1.412       .  A
C1841      H1848   1.076       .  S
C1842      C1843   1.443       .  A
C1843      C1844   1.400       .  A
C1843      N1850   1.434       .  S
C1844      C1845   1.413       .  A
C1844      H1849   1.079       .  S
C1845      C1846   1.426       .  A
C1846      N1847   1.433       .  S
N1847      H1851   1.037       .  S
N1847      H1852   1.040       .  S
N1850      H1853   1.038       .  S
N1850      H1854   1.042       .  S
C1855      C1856   1.420       .  A
C1855      C1860   1.423       .  A
C1855      H1862   1.068       .  S
C1856      C1857   1.443       .  A
C1857      C1858   1.415       .  A
C1857      N1864   1.431       .  S
C1858      C1859   1.406       .  A
C1858      H1863   1.076       .  S
C1859      C1860   1.430       .  A
C1860      N1861   1.430       .  S
N1861      H1865   1.046       .  S
N1861      H1866   1.046       .  S
N1864      H1867   1.044       .  S
N1864      H1868   1.046       .  S
C1869      C1870   1.408       .  A
C1869      C1874   1.421       .  A
C1869      H1876   1.082       .  S
C1870      C1871   1.448       .  A
C1871      C1872   1.401       .  A
C1871      N1878   1.444       .  S
C1872      C1873   1.404       .  A
C1872      H1877   1.077       .  S
C1873      C1874   1.431       .  A
C1874      N1875   1.429       .  S
N1875      H1879   1.045       .  S
N1875      H1880   1.046       .  S
N1878      H1881   1.033   1_655  S
N1878      H1882   1.045   1_655  S
C1883      C1884   1.417       .  A
C1883      C1888   1.397       .  A
C1883      H1890   1.072       .  S
C1884      C1885   1.442       .  A
C1885      C1886   1.415       .  A
C1885      N1892   1.441       .  S
C1886      C1887   1.400       .  A
C1886      H1891   1.084       .  S
C1887      C1888   1.404       .  A
C1888      N1889   1.441       .  S
N1889      H1893   1.046       .  S
N1889      H1894   1.045       .  S
N1892      H1895   1.039       .  S
N1892      H1896   1.045       .  S
