geometry optimzed in LAMMPS
_audit_creation_date              2020-12-01 
_audit_creation_method            'lammps2cif' 
_symmetry_space_group_name_H-M    'P1' 
_symmetry_Int_Tables_number       1 
_symmetry_cell_setting            triclinic 
loop_ 
_symmetry_equiv_pos_as_xyz 
  x,y,z 
_cell_length_a                    46.15355302 
_cell_length_b                    46.12967499110085 
_cell_length_c                    46.16223861050219 
_cell_angle_alpha                 90.00024433851048 
_cell_angle_beta                  90.00010828079304 
_cell_angle_gamma                 90.00039583179324 
loop_ 
_atom_site_label 
_atom_site_type_symbol 
_atom_site_fract_x 
_atom_site_fract_y 
_atom_site_fract_z 
_atom_site_charge 
O1          O  0.22836902  0.28391909  0.30430648    -0.74800
O2          O  0.27170195  0.21623340  0.30406479    -0.74800
O3          O  0.21618780  0.22834340  0.30420465    -0.74900
O4          O  0.28386040  0.27176419  0.30412951    -0.75000
O5          O  0.28018072  0.28092045  0.35099965    -0.74900
O6          O  0.22011464  0.21909200  0.35104268    -0.74900
O7          O  0.28093947  0.21994653  0.35092854    -0.74800
O8          O  0.21925281  0.28009278  0.35116634    -0.74900
Ni9        Ni  0.25002136  0.25007323  0.30290304     1.25400
Ni10       Ni  0.25012493  0.25001897  0.35361250     1.25400
C11         C  0.21395913  0.29187307  0.32629957     0.87400
C12         C  0.28612208  0.20819858  0.32602311     0.87300
C13         C  0.20838706  0.21376778  0.32615503     0.87300
C14         C  0.29186275  0.28621744  0.32608199     0.87500
O15         O  0.38139139  0.28079655  0.18920798    -0.74800
O16         O  0.38082924  0.21951090  0.24977388    -0.74800
O17         O  0.38145428  0.21967303  0.18893884    -0.74900
O18         O  0.38080609  0.28036595  0.24998917    -0.75000
O19         O  0.33371640  0.28342347  0.24149608    -0.74900
O20         O  0.33431106  0.21672414  0.19685502    -0.74900
O21         O  0.33365473  0.22761100  0.25244737    -0.74800
O22         O  0.33435382  0.27243908  0.18574084    -0.74900
Ni23       Ni  0.38361541  0.25008751  0.21947614     1.25400
Ni24       Ni  0.33276458  0.25006009  0.21910077     1.25400
C25         C  0.35650784  0.28659091  0.17771768     0.87400
C26         C  0.35580675  0.21376572  0.26100266     0.87300
C27         C  0.35656035  0.20816474  0.18322244     0.87300
C28         C  0.35581661  0.29173152  0.25555440     0.87500
O29         O  0.27200730  0.33423664  0.25280138    -0.74800
O30         O  0.22777382  0.33484402  0.18583764    -0.74800
O31         O  0.28337873  0.33483767  0.19726646    -0.74900
O32         O  0.21636724  0.33426086  0.24152786    -0.75000
O33         O  0.21973908  0.38127110  0.25039867    -0.74900
O34         O  0.28005686  0.38189735  0.18891909    -0.74900
O35         O  0.21902146  0.38180958  0.18953916    -0.74800
O36         O  0.28053731  0.38132924  0.24978901    -0.74900
Ni37       Ni  0.24987264  0.33328646  0.21932766     1.25400
Ni38       Ni  0.24983170  0.38410652  0.21966588     1.25400
C39         C  0.28606978  0.35631926  0.26115700     0.87400
C40         C  0.21347899  0.35693300  0.17789107     0.87300
C41         C  0.29167770  0.35701554  0.18331643     0.87300
C42         C  0.20827802  0.35628733  0.25585582     0.87500
O43         O  0.16666928  0.21672918  0.24190420    -0.74800
O44         O  0.16583893  0.28326738  0.19699517    -0.74800
O45         O  0.16644148  0.27251525  0.25261657    -0.74900
O46         O  0.16604256  0.22748864  0.18609888    -0.75000
O47         O  0.11898708  0.21911590  0.18951562    -0.74900
O48         O  0.11925240  0.28047476  0.24993149    -0.74900
O49         O  0.11871415  0.28016015  0.18905761    -0.74800
O50         O  0.11954686  0.21960836  0.25028693    -0.74900
Ni51       Ni  0.16749220  0.25000387  0.21937105     1.25400
Ni52       Ni  0.11663434  0.24983450  0.21970478     1.25400
C53         C  0.14456549  0.20831023  0.25589094     0.87400
C54         C  0.14358751  0.29167930  0.18326968     0.87300
C55         C  0.14424871  0.28628081  0.26116723     0.87300
C56         C  0.14388277  0.21335876  0.17804433     0.87500
O57         O  0.21952974  0.11836758  0.24968059    -0.74800
O58         O  0.28113328  0.11785839  0.18947840    -0.74800
O59         O  0.28035339  0.11846660  0.25033685    -0.74900
O60         O  0.22009638  0.11781981  0.18874605    -0.75000
O61         O  0.21655198  0.16478507  0.19747588    -0.74900
O62         O  0.28397927  0.16538019  0.24108401    -0.74900
O63         O  0.27204072  0.16473468  0.18549117    -0.74800
O64         O  0.22838577  0.16537607  0.25291933    -0.74900
Ni65       Ni  0.25028063  0.11556494  0.21956285     1.25400
Ni66       Ni  0.25024991  0.16633398  0.21921038     1.25400
C67         C  0.21416949  0.14335200  0.26120654     0.87400
C68         C  0.28652164  0.14271018  0.17770563     0.87300
C69         C  0.29193723  0.14344311  0.25561105     0.87300
C70         C  0.20838121  0.14270352  0.18331801     0.87500
O71         O  0.28069964  0.21950372  0.08922017    -0.74800
O72         O  0.21966741  0.28042981  0.08913209    -0.74800
O73         O  0.28055649  0.28053031  0.08911228    -0.74900
O74         O  0.21979356  0.21942439  0.08922742    -0.75000
O75         O  0.22685748  0.21731960  0.13656730    -0.74900
O76         O  0.27349637  0.28268731  0.13644693    -0.74900
O77         O  0.21751494  0.27340514  0.13646981    -0.74800
O78         O  0.28290641  0.22660989  0.13655071    -0.74900
Ni79       Ni  0.25018527  0.24996583  0.08676684     1.25400
Ni80       Ni  0.25019945  0.25000718  0.13771759     1.25400
C81         C  0.29168419  0.21320588  0.11421085     0.87400
C82         C  0.20867776  0.28674413  0.11411511     0.87300
C83         C  0.28674330  0.29159341  0.11408831     0.87300
C84         C  0.21356515  0.20841870  0.11422256     0.87500
C85         C  0.34886516  0.34900259  0.31797777     0.86100
C86         C  0.36622582  0.32984372  0.29608149    -0.54100
C87         C  0.34875136  0.31296663  0.27917476     0.09000
C88         C  0.31663744  0.31692822  0.28646844     0.20000
C89         C  0.32690999  0.36651646  0.29902093    -0.54900
C90         C  0.30962087  0.34912815  0.28243566     0.09100
C91         C  0.32992494  0.32722314  0.33580619    -0.54400
C92         C  0.31295471  0.30998031  0.31870684     0.09700
H93         H  0.38968357  0.32993340  0.29414681     0.14200
H94         H  0.30284253  0.30316986  0.27292088     0.00000
H95         H  0.32531855  0.38996826  0.29892127     0.14500
H96         H  0.33025130  0.32560212  0.35928640     0.14300
C97         C  0.40138019  0.40113275  0.36970983     0.86100
C98         C  0.42332483  0.42016038  0.35226314    -0.54100
C99         C  0.44044822  0.43687405  0.36969583     0.09000
C100        C  0.43330960  0.43289544  0.40184443     0.20000
C101        C  0.42032425  0.38343646  0.39156030    -0.54900
C102        C  0.43714567  0.40066081  0.40880766     0.09100
C103        C  0.38383134  0.42301828  0.38874365    -0.54400
C104        C  0.40114775  0.44006746  0.40566387     0.09700
H105        H  0.42508076  0.42016325  0.32879344     0.14200
H106        H  0.44698411  0.44653834  0.41563568     0.00000
H107        H  0.42018276  0.35997879  0.39316166     0.14500
H108        H  0.36036709  0.42482180  0.38855367     0.14300
C109        C  0.34884229  0.15120075  0.31834652     0.86100
C110        C  0.32699602  0.17019925  0.33598017    -0.54100
C111        C  0.30971372  0.18694838  0.31872548     0.09000
C112        C  0.31662864  0.18301681  0.28650215     0.20000
C113        C  0.32979826  0.13355424  0.29656104    -0.54900
C114        C  0.31288666  0.15079508  0.27943799     0.09100
C115        C  0.36623053  0.17315147  0.29920418    -0.54400
C116        C  0.34876138  0.19022606  0.28242613     0.09700
H117        H  0.32542180  0.17015047  0.35945933     0.14200
H118        H  0.30276768  0.19661854  0.27284839     0.00000
H119        H  0.33006225  0.11010975  0.29479193     0.14500
H120        H  0.38969907  0.17491417  0.29915367     0.14300
C121        C  0.40096863  0.09876189  0.37039470     0.86100
C122        C  0.42282699  0.11635998  0.38938757    -0.54100
C123        C  0.43997669  0.09907027  0.40621725     0.09000
C124        C  0.43295281  0.06684539  0.40236633     0.20000
C125        C  0.42000254  0.07682067  0.35287995    -0.54900
C126        C  0.43682155  0.05967187  0.37022424     0.09100
C127        C  0.38342971  0.07973447  0.39230911    -0.54400
C128        C  0.40078215  0.06292990  0.40945971     0.09700
H129        H  0.42450974  0.13980700  0.38927428     0.14200
H130        H  0.44670428  0.05316148  0.41604312     0.00000
H131        H  0.41987488  0.07504635  0.32940906     0.14500
H132        H  0.35995463  0.07980511  0.39402246     0.14300
C133        C  0.15115454  0.34885751  0.31842081     0.86100
C134        C  0.17293403  0.32986317  0.33618344    -0.54100
C135        C  0.19025554  0.31304714  0.31901381     0.09000
C136        C  0.18338560  0.31691042  0.28677921     0.20000
C137        C  0.17029404  0.36640975  0.29664039    -0.54900
C138        C  0.18722975  0.34908079  0.27963267     0.09100
C139        C  0.13376966  0.32691096  0.29929337    -0.54400
C140        C  0.15125177  0.30977347  0.28262144     0.09700
H141        H  0.17447163  0.33001266  0.35966661     0.14200
H142        H  0.19723350  0.30326091  0.27319044     0.00000
H143        H  0.17007834  0.38985035  0.29479547     0.14500
H144        H  0.11029717  0.32522484  0.29914266     0.14300
C145        C  0.09880329  0.40140605  0.37002402     0.86100
C146        C  0.07674732  0.38382793  0.38881236    -0.54100
C147        C  0.05956958  0.40112157  0.40560899     0.09000
C148        C  0.06675884  0.43331341  0.40190631     0.20000
C149        C  0.07998407  0.42347125  0.35244772    -0.54900
C150        C  0.06314460  0.44061832  0.36976295     0.09100
C151        C  0.11628352  0.42029874  0.39210902    -0.54400
C152        C  0.09889749  0.43712884  0.40920032     0.09700
H153        H  0.07499911  0.36038654  0.38863328     0.14200
H154        H  0.05295634  0.44694472  0.41556915     0.00000
H155        H  0.08027980  0.42534276  0.32898959     0.14500
H156        H  0.13974960  0.42014671  0.39394616     0.14300
C157        C  0.34892379  0.34946064  0.12064200     0.86100
C158        C  0.32697504  0.33021568  0.10334810    -0.54100
C159        C  0.31002985  0.31339650  0.12088669     0.09000
C160        C  0.31725397  0.31768391  0.15295518     0.20000
C161        C  0.32992858  0.36716773  0.14249790    -0.54900
C162        C  0.31319146  0.34990885  0.15982277     0.09100
C163        C  0.36663008  0.32767945  0.13973256    -0.54400
C164        C  0.34941824  0.31057295  0.15673537     0.09700
H165        H  0.32521278  0.33004373  0.07988229     0.14200
H166        H  0.30371262  0.30409473  0.16682486     0.00000
H167        H  0.32990150  0.39062664  0.14396697     0.14500
H168        H  0.39009203  0.32587366  0.13937875     0.14300
C169        C  0.40087833  0.40089253  0.06738693     0.86100
C170        C  0.42277719  0.38320351  0.04841989    -0.54100
C171        C  0.43982546  0.40046224  0.03138006     0.09000
C172        C  0.43260057  0.43264555  0.03503191     0.20000
C173        C  0.41992888  0.42299892  0.08463426    -0.54900
C174        C  0.43664197  0.44000641  0.06708708     0.09100
C175        C  0.38318088  0.41969051  0.04541030    -0.54400
C176        C  0.40039423  0.43639953  0.02805175     0.09700
H177        H  0.42463225  0.35977368  0.04880125     0.14200
H178        H  0.44618505  0.44632522  0.02122241     0.00000
H179        H  0.41997155  0.42491106  0.10809457     0.14500
H180        H  0.35969675  0.41958787  0.04385189     0.14300
C181        C  0.15143506  0.15090952  0.31826539     0.86100
C182        C  0.13412509  0.17014907  0.29638613    -0.54100
C183        C  0.15162971  0.18694644  0.27941380     0.09000
C184        C  0.18374969  0.18283764  0.28661727     0.20000
C185        C  0.17329660  0.13329770  0.29923008    -0.54900
C186        C  0.19064338  0.15060743  0.28257230     0.09100
C187        C  0.17051062  0.17264713  0.33599826    -0.54400
C188        C  0.18747857  0.18983145  0.31883737     0.09700
H189        H  0.11065970  0.17021366  0.29455212     0.14200
H190        H  0.19759540  0.19653141  0.27304459     0.00000
H191        H  0.17478623  0.10983589  0.29914109     0.14500
H192        H  0.17017904  0.17437274  0.35947066     0.14300
C193        C  0.09856424  0.09914643  0.37037381     0.86100
C194        C  0.07958711  0.11676434  0.39230721    -0.54100
C195        C  0.06274942  0.09945229  0.40949483     0.09000
C196        C  0.06659258  0.06725817  0.40238312     0.20000
C197        C  0.11607613  0.07717483  0.38938082    -0.54900
C198        C  0.09874849  0.06006593  0.40624791     0.09100
C199        C  0.07658445  0.08017668  0.35287328    -0.54400
C200        C  0.05942582  0.06341111  0.37023558     0.09700
H201        H  0.07973122  0.14021085  0.39400976     0.14200
H202        H  0.05289958  0.05354400  0.41606334     0.00000
H203        H  0.13954749  0.07538474  0.38922902     0.14500
H204        H  0.07482723  0.08026073  0.32940648     0.14300
C205        C  0.15078883  0.34910640  0.12075005     0.86100
C206        C  0.13322425  0.32998338  0.14259387    -0.54100
C207        C  0.15057397  0.31328150  0.15984731     0.09000
C208        C  0.18275698  0.31750413  0.15295851     0.20000
C209        C  0.17246471  0.36689797  0.13986088    -0.54900
C210        C  0.18965974  0.34973084  0.15680515     0.09100
C211        C  0.17012954  0.32722246  0.10340423    -0.54400
C212        C  0.18702321  0.31026252  0.12090192     0.09700
H213        H  0.10974383  0.32984219  0.14410265     0.14200
H214        H  0.19645127  0.30401413  0.16677167     0.00000
H215        H  0.17409822  0.39034944  0.13961428     0.14500
H216        H  0.17020964  0.32543352  0.07993625     0.14300
C217        C  0.09875702  0.40095096  0.06784575     0.86100
C218        C  0.07672551  0.42005684  0.08513456    -0.54100
C219        C  0.05968803  0.43675500  0.06759749     0.09000
C220        C  0.06697608  0.43267518  0.03552385     0.20000
C221        C  0.07985061  0.38322346  0.04593816    -0.54900
C222        C  0.06309514  0.40043792  0.02858774     0.09100
C223        C  0.11639101  0.42282919  0.04879047    -0.54400
C224        C  0.09913903  0.43987040  0.03174646     0.09700
H225        H  0.07485929  0.42012266  0.10859311     0.14200
H226        H  0.05334827  0.44631462  0.02174128     0.00000
H227        H  0.07992770  0.35976240  0.04442548     0.14500
H228        H  0.13985191  0.42466128  0.04910638     0.14300
C229        C  0.34934535  0.15068053  0.12082060     0.86100
C230        C  0.36691976  0.16971498  0.14272254    -0.54100
C231        C  0.34955790  0.18641727  0.15996464     0.09000
C232        C  0.31736676  0.18222861  0.15304848     0.20000
C233        C  0.32762728  0.13286446  0.13982045    -0.54900
C234        C  0.31042341  0.14999060  0.15676379     0.09100
C235        C  0.33010497  0.17265209  0.10349272    -0.54400
C236        C  0.31320756  0.18958666  0.12100421     0.09700
H237        H  0.39039918  0.16987641  0.14421340     0.14200
H238        H  0.30362798  0.19566664  0.16688448     0.00000
H239        H  0.32595081  0.10941765  0.13947883     0.14500
H240        H  0.33011045  0.17453612  0.08003451     0.14300
C241        C  0.40078077  0.09836143  0.06802073     0.86100
C242        C  0.42277070  0.07927858  0.08535470    -0.54100
C243        C  0.43974684  0.06250464  0.06784502     0.09000
C244        C  0.43241606  0.06643398  0.03576276     0.20000
C245        C  0.41968550  0.11594560  0.04605138    -0.54900
C246        C  0.43635660  0.09863240  0.02875637     0.09100
C247        C  0.38304048  0.07647673  0.04908192    -0.54400
C248        C  0.40023352  0.05930992  0.03210051     0.09700
H249        H  0.42473400  0.07936389  0.10880775     0.14200
H250        H  0.44598735  0.05273603  0.02195189     0.00000
H251        H  0.41972537  0.13940757  0.04449810     0.14500
H252        H  0.35957485  0.07473904  0.04941395     0.14300
C253        C  0.15109992  0.15074711  0.12073032     0.86100
C254        C  0.17010483  0.13288483  0.14244783    -0.54100
C255        C  0.18696238  0.14999413  0.15979935     0.09000
C256        C  0.18303134  0.18227652  0.15307925     0.20000
C257        C  0.13356356  0.17250927  0.13997269    -0.54900
C258        C  0.15090096  0.18946834  0.15698004     0.09100
C259        C  0.17307737  0.17000679  0.10344921    -0.54400
C260        C  0.19018603  0.18667157  0.12101138     0.09700
H261        H  0.17000074  0.10942447  0.14385301     0.14200
H262        H  0.19665755  0.19578576  0.16696486     0.00000
H263        H  0.11010779  0.17441142  0.13972330     0.14500
H264        H  0.17474316  0.17029552  0.07997540     0.14300
C265        C  0.09862665  0.09892811  0.06818134     0.86100
C266        C  0.11618842  0.07982527  0.04630534    -0.54100
C267        C  0.09886198  0.06297201  0.02916066     0.09000
C268        C  0.06671173  0.06695837  0.03624465     0.20000
C269        C  0.07675701  0.11648959  0.04907662    -0.54900
C270        C  0.05963928  0.09913557  0.03222513     0.09100
C271        C  0.07953358  0.07702086  0.08571851    -0.54400
C272        C  0.06274797  0.05983302  0.06837676     0.09700
H273        H  0.13966596  0.07989869  0.04461772     0.14200
H274        H  0.05300953  0.05326551  0.02261227     0.00000
H275        H  0.07508007  0.13993645  0.04911270     0.14500
H276        H  0.07962623  0.07528225  0.10919092     0.14300
O277        O  0.13123058  0.46934639  0.49935550    -0.74800
O278        O  0.13090074  0.03075430  0.43887774    -0.74800
O279        O  0.13119713  0.03039601  0.49977554    -0.74900
O280        O  0.13092442  0.46982762  0.43850211    -0.75000
O281        O  0.08382761  0.46671517  0.44682747    -0.74900
O282        O  0.08412105  0.03341758  0.49148525    -0.74900
O283        O  0.08382263  0.02231352  0.43584783    -0.74800
O284        O  0.08414688  0.47755777  0.50258117    -0.74900
Ni285      Ni  0.13352160  0.50009086  0.46913149     1.25400
Ni286      Ni  0.08267937  0.50001585  0.46929788     1.25400
C287        C  0.10625197  0.46366068  0.01053626     0.87400
C288        C  0.10591024  0.03638164  0.42750628     0.87300
C289        C  0.10589425  0.04162067  0.00551694     0.87300
C290        C  0.10597011  0.45840590  0.43284435     0.87500
O291        O  0.03347222  0.08447425  0.44742210    -0.74800
O292        O  0.46630641  0.08448258  0.49117077    -0.74800
O293        O  0.47781908  0.08436790  0.43565399    -0.74900
O294        O  0.02170860  0.08463659  0.50300410    -0.75000
O295        O  0.03024512  0.13165502  0.49945929    -0.74900
O296        O  0.46887247  0.13136377  0.43896315    -0.74900
O297        O  0.46934486  0.13152374  0.49981514    -0.74800
O298        O  0.02978567  0.13144993  0.43860536    -0.74900
Ni299      Ni  0.99981632  0.08305450  0.46936005     1.25400
Ni300      Ni  0.99952042  0.13386711  0.46925005     1.25400
C301        C  0.04150750  0.10657520  0.43318277     0.87400
C302        C  0.45776031  0.10585068  0.00528795     0.87300
C303        C  0.46354359  0.10637173  0.42745049     0.87300
C304        C  0.03609308  0.10617456  0.01077334     0.87500
O305        O  0.02995416  0.03036958  0.10024056    -0.74800
O306        O  0.46945707  0.46913983  0.09896672    -0.74800
O307        O  0.03040708  0.46949579  0.09943822    -0.74900
O308        O  0.46901830  0.02981613  0.09965318    -0.75000
O309        O  0.47768475  0.03341076  0.05264750    -0.74900
O310        O  0.02213777  0.46640132  0.05233263    -0.75300
O311        O  0.46635560  0.47757294  0.05188103    -0.74800
O312        O  0.03354903  0.02184401  0.05324408    -0.74900
Ni313      Ni  0.49965184  0.49974731  0.10165587     1.25400
Ni314      Ni  0.49983531  0.49986401  0.05080857     1.25400
C315        C  0.04158644  0.03600442  0.07538902     0.87400
C316        C  0.45800618  0.46358214  0.07402546     0.87300
C317        C  0.03607295  0.45807450  0.07451151     0.87300
C318        C  0.46350382  0.04141839  0.07478431     0.87500
O319        O  0.36873643  0.46916907  0.49927465    -0.74800
O320        O  0.36874382  0.02989828  0.43829494    -0.74800
O321        O  0.36896192  0.46902415  0.43844211    -0.74900
O322        O  0.36835718  0.03018232  0.49908478    -0.75000
O323        O  0.41530787  0.02145587  0.50284996    -0.74900
O324        O  0.41594068  0.47795671  0.43513724    -0.74900
O325        O  0.41567900  0.03352083  0.44730077    -0.74800
O326        O  0.41575776  0.46597945  0.49064056    -0.74900
Ni327      Ni  0.36615202  0.49955550  0.46876689     1.25400
Ni328      Ni  0.41693546  0.49977395  0.46892434     1.25400
C329        C  0.39311999  0.45763274  0.00445741     0.87400
C330        C  0.39363624  0.04162788  0.43303421     0.87300
C331        C  0.39392939  0.46369776  0.42690025     0.87300
C332        C  0.39303473  0.03553508  0.01094317     0.87500
O333        O  0.03046295  0.03055823  0.33818132    -0.74800
O334        O  0.46928918  0.46987301  0.33774102    -0.74800
O335        O  0.46963524  0.03064258  0.33812790    -0.74900
O336        O  0.03031175  0.46974012  0.33781730    -0.75000
O337        O  0.03427748  0.47889422  0.38468159    -0.74900
O338        O  0.46610656  0.02157493  0.38505414    -0.74900
O339        O  0.47828095  0.46619433  0.38467163    -0.74800
O340        O  0.02156969  0.03399106  0.38514302    -0.74900
Ni341      Ni  0.99998883  0.50027497  0.33546951     1.25400
Ni342      Ni  0.00012629  0.50013320  0.38620640     1.25400
C343        C  0.03578953  0.04218272  0.36309638     0.87400
C344        C  0.46402311  0.45813374  0.36261268     0.87300
C345        C  0.45799771  0.03593875  0.36305462     0.87300
C346        C  0.04215532  0.46448011  0.36264111     0.87500
O347        O  0.46991704  0.36833202  0.43772638    -0.74800
O348        O  0.03033917  0.36817256  0.49924094    -0.74800
O349        O  0.46926736  0.36780827  0.49859159    -0.74900
O350        O  0.03063222  0.36882130  0.43830608    -0.75000
O351        O  0.02176715  0.41584265  0.43517880    -0.74900
O352        O  0.47816723  0.41474797  0.50238614    -0.74900
O353        O  0.03390841  0.41516836  0.49061560    -0.74800
O354        O  0.46654340  0.41530034  0.44675674    -0.74900
Ni355      Ni  0.50006261  0.36546864  0.46846434     1.25400
Ni356      Ni  0.50014257  0.41625811  0.46879348     1.25400
C357        C  0.45836974  0.39332093  0.43241863     0.87400
C358        C  0.04177999  0.39323114  0.00496811     0.87300
C359        C  0.46366331  0.39335781  0.01029508     0.87300
C360        C  0.03597166  0.39383181  0.42683931     0.87500
C361        C  0.13249117  0.13247689  0.10198373    -0.13700
C362        C  0.11719379  0.11743733  0.08673357    -0.15200
C363        C  0.38258396  0.11694335  0.08675262    -0.13700
C364        C  0.36774496  0.13226157  0.10211612    -0.15200
C365        C  0.11716592  0.38256503  0.08665058    -0.13700
C366        C  0.13226727  0.36747992  0.10203741    -0.15200
C367        C  0.13262090  0.13249703  0.33662443    -0.13700
C368        C  0.11718693  0.11753292  0.35179050    -0.15200
C369        C  0.36732784  0.36778086  0.10180852    -0.13700
C370        C  0.38246110  0.38262973  0.08625216    -0.15200
C371        C  0.11732801  0.38283179  0.35162581    -0.13700
C372        C  0.13251966  0.36746357  0.33667422    -0.15200
C373        C  0.36742042  0.13266750  0.33677335    -0.13700
C374        C  0.38250523  0.11733171  0.35188942    -0.15200
C375        C  0.36755766  0.36756663  0.33616408    -0.13700
C376        C  0.38286122  0.38274182  0.35117039    -0.15200
O377        O  0.22880340  0.28404952  0.80440960    -0.74800
O378        O  0.27145554  0.21590326  0.80408830    -0.74800
O379        O  0.21603356  0.22859189  0.80421980    -0.74900
O380        O  0.28417536  0.27132908  0.80420708    -0.75000
O381        O  0.28028372  0.28068906  0.85102522    -0.74900
O382        O  0.22005292  0.21905960  0.85099625    -0.74900
O383        O  0.28089228  0.21974602  0.85090888    -0.74800
O384        O  0.21940379  0.27999682  0.85120158    -0.74900
Ni385      Ni  0.25010863  0.24997294  0.80293858     1.25400
Ni386      Ni  0.25016747  0.24986712  0.85362712     1.25400
C387        C  0.21426566  0.29188904  0.82636383     0.87400
C388        C  0.28598304  0.20795381  0.82601219     0.87300
C389        C  0.20821928  0.21393809  0.82611686     0.87300
C390        C  0.29205176  0.28589856  0.82613081     0.87500
O391        O  0.38134903  0.28096897  0.68934759    -0.74800
O392        O  0.38093101  0.21959520  0.74982213    -0.74800
O393        O  0.38157956  0.21987233  0.68895897    -0.74900
O394        O  0.38077705  0.28043868  0.75009563    -0.75000
O395        O  0.33373609  0.28361272  0.74135159    -0.74900
O396        O  0.33450687  0.21659326  0.69713945    -0.74900
O397        O  0.33380371  0.22787398  0.75269264    -0.74800
O398        O  0.33438474  0.27227481  0.68566507    -0.74900
Ni399      Ni  0.38366953  0.25022296  0.71955724     1.25400
Ni400      Ni  0.33284873  0.25009133  0.71917766     1.25400
C401        C  0.35647466  0.28659622  0.67775551     0.87400
C402        C  0.35593379  0.21393978  0.76115958     0.87300
C403        C  0.35673276  0.20821814  0.68334282     0.87300
C404        C  0.35578652  0.29185705  0.75552753     0.87500
O405        O  0.27189686  0.33410748  0.75281533    -0.74800
O406        O  0.22780070  0.33478534  0.68574648    -0.74800
O407        O  0.28336560  0.33482096  0.69729219    -0.74900
O408        O  0.21627826  0.33408199  0.74140643    -0.75000
O409        O  0.21965296  0.38107743  0.75039319    -0.74900
O410        O  0.27993041  0.38185890  0.68889612    -0.74900
O411        O  0.21891427  0.38171694  0.68955871    -0.74800
O412        O  0.28041849  0.38120495  0.74982039    -0.74900
Ni413      Ni  0.24982832  0.33318820  0.71928162     1.25400
Ni414      Ni  0.24972441  0.38400120  0.71967512     1.25400
C415        C  0.28592614  0.35619660  0.76121477     0.87400
C416        C  0.21344463  0.35685407  0.67785388     0.87300
C417        C  0.29158608  0.35699216  0.68329104     0.87300
C418        C  0.20820831  0.35607602  0.75579005     0.87500
O419        O  0.16658260  0.21639205  0.74138154    -0.74800
O420        O  0.16580487  0.28339667  0.69718227    -0.74800
O421        O  0.16655329  0.27209655  0.75271670    -0.74900
O422        O  0.16583167  0.22774762  0.68569897    -0.75000
O423        O  0.11885884  0.21909132  0.68947450    -0.74900
O424        O  0.11941757  0.28038874  0.74990672    -0.74900
O425        O  0.11872538  0.28011597  0.68902307    -0.74800
O426        O  0.11954402  0.21961618  0.75016829    -0.74900
Ni427      Ni  0.16746073  0.24990782  0.71920787     1.25400
Ni428      Ni  0.11662878  0.24981377  0.71964869     1.25400
C429        C  0.14452674  0.20816960  0.75556296     0.87400
C430        C  0.14358494  0.29170368  0.68334199     0.87300
C431        C  0.14441502  0.28597388  0.76125484     0.87300
C432        C  0.14370556  0.21344633  0.67785403     0.87500
O433        O  0.21965562  0.11858568  0.74974433    -0.74800
O434        O  0.28121219  0.11797458  0.68951267    -0.74800
O435        O  0.28046762  0.11861221  0.75030900    -0.74900
O436        O  0.22013825  0.11796148  0.68884501    -0.75000
O437        O  0.21671178  0.16497456  0.69738646    -0.74900
O438        O  0.28403809  0.16554853  0.74111790    -0.74900
O439        O  0.27222987  0.16487424  0.68554192    -0.74800
O440        O  0.22841861  0.16562655  0.75286435    -0.74900
Ni441      Ni  0.25036612  0.11573188  0.71960320     1.25400
Ni442      Ni  0.25035944  0.16652085  0.71919543     1.25400
C443        C  0.21425036  0.14358957  0.76120391     0.87400
C444        C  0.28668864  0.14282610  0.67778418     0.87300
C445        C  0.29204393  0.14358531  0.75557546     0.87300
C446        C  0.20844614  0.14284087  0.68336045     0.87500
O447        O  0.28073446  0.21937828  0.58921419    -0.74800
O448        O  0.21957920  0.28020046  0.58912194    -0.74800
O449        O  0.28047349  0.28039343  0.58912373    -0.74900
O450        O  0.21978789  0.21919177  0.58919461    -0.75000
O451        O  0.22655564  0.21735786  0.63658525    -0.74900
O452        O  0.27372156  0.28226469  0.63651734    -0.74900
O453        O  0.21768657  0.27347660  0.63651421    -0.74800
O454        O  0.28261154  0.22617979  0.63659999    -0.74900
Ni455      Ni  0.25014832  0.24977995  0.58676497     1.25400
Ni456      Ni  0.25014548  0.24981830  0.63774451     1.25400
C457        C  0.29159499  0.21298101  0.61423565     0.87400
C458        C  0.20872294  0.28666207  0.61412784     0.87300
C459        C  0.28680273  0.29131815  0.61412721     0.87300
C460        C  0.21340576  0.20833551  0.61421655     0.87500
C461        C  0.34873246  0.34893078  0.81805911     0.86100
C462        C  0.36611555  0.32989257  0.79609086    -0.54100
C463        C  0.34866645  0.31300835  0.77917285     0.09000
C464        C  0.31655215  0.31682560  0.78651775     0.20000
C465        C  0.32668707  0.36641946  0.79917504    -0.54900
C466        C  0.30943653  0.34901668  0.78255532     0.09100
C467        C  0.32991059  0.32704103  0.83586036    -0.54400
C468        C  0.31298606  0.30977723  0.81874690     0.09700
H469        H  0.38957026  0.33005736  0.79412117     0.14200
H470        H  0.30276996  0.30303616  0.77297359     0.00000
H471        H  0.32504401  0.38986926  0.79911164     0.14500
H472        H  0.33030139  0.32534122  0.85933543     0.14300
C473        C  0.40118808  0.40115721  0.86975356     0.86100
C474        C  0.42315434  0.42015223  0.85227206    -0.54100
C475        C  0.44019414  0.43699511  0.86967563     0.09000
C476        C  0.43292515  0.43316709  0.90181613     0.20000
C477        C  0.42013390  0.38361851  0.89173367    -0.54900
C478        C  0.43687998  0.40098301  0.90892173     0.09100
C479        C  0.38352126  0.42307618  0.88864057    -0.54400
C480        C  0.40073219  0.44025937  0.90552313     0.09700
H481        H  0.42502300  0.41999084  0.82881163     0.14200
H482        H  0.44647975  0.44691999  0.91560129     0.00000
H483        H  0.42010848  0.36016875  0.89340481     0.14500
H484        H  0.36005139  0.42479006  0.88839639     0.14300
C485        C  0.34886145  0.15121826  0.81832631     0.86100
C486        C  0.32692823  0.17009899  0.83595400    -0.54100
C487        C  0.30967815  0.18686428  0.81869886     0.09000
C488        C  0.31671839  0.18309958  0.78649481     0.20000
C489        C  0.32991589  0.13361275  0.79643894    -0.54900
C490        C  0.31303158  0.15089541  0.77934010     0.09100
C491        C  0.36628967  0.17325094  0.79931574    -0.54400
C492        C  0.34885692  0.19035849  0.78253590     0.09700
H493        H  0.32524229  0.16993327  0.85942617     0.14200
H494        H  0.30288296  0.19675635  0.77286453     0.00000
H495        H  0.33017402  0.11017205  0.79462886     0.14500
H496        H  0.38975804  0.17503021  0.79934151     0.14300
C497        C  0.40081700  0.09869707  0.87032448     0.86100
C498        C  0.42272540  0.11618305  0.88937203    -0.54100
C499        C  0.43980700  0.09878513  0.90616997     0.09000
C500        C  0.43266291  0.06661493  0.90223427     0.20000
C501        C  0.41979661  0.07675556  0.85275655    -0.54900
C502        C  0.43658483  0.05954458  0.87005954     0.09100
C503        C  0.38319483  0.07971442  0.89218949    -0.54400
C504        C  0.40047986  0.06286107  0.90933581     0.09700
H505        H  0.42448205  0.13962655  0.88932218     0.14200
H506        H  0.44630549  0.05283698  0.91591950     0.00000
H507        H  0.41974118  0.07510668  0.82927663     0.14500
H508        H  0.35972812  0.07993292  0.89395704     0.14300
C509        C  0.15127976  0.34859006  0.81845045     0.86100
C510        C  0.17316460  0.32973999  0.83621915    -0.54100
C511        C  0.19050261  0.31294284  0.81905324     0.09000
C512        C  0.18355331  0.31665382  0.78682019     0.20000
C513        C  0.17029872  0.36614092  0.79658422    -0.54900
C514        C  0.18725172  0.34882270  0.77959476     0.09100
C515        C  0.13393792  0.32652679  0.79942476    -0.54400
C516        C  0.15144137  0.30941270  0.78275080     0.09700
H517        H  0.17476385  0.32997040  0.85969759     0.14200
H518        H  0.19740417  0.30298898  0.77322763     0.00000
H519        H  0.16999685  0.38957515  0.79466965     0.14500
H520        H  0.11046704  0.32478347  0.79929894     0.14300
C521        C  0.09892554  0.40122029  0.86994913     0.86100
C522        C  0.07706914  0.38360751  0.88893823    -0.54100
C523        C  0.05989563  0.40088853  0.90574533     0.09000
C524        C  0.06690861  0.43311131  0.90184631     0.20000
C525        C  0.07987670  0.42311110  0.85237067    -0.54900
C526        C  0.06302630  0.44025529  0.86969298     0.09100
C527        C  0.11643624  0.42030610  0.89185078    -0.54400
C528        C  0.09906166  0.43712459  0.90896468     0.09700
H529        H  0.07541761  0.36015985  0.88884640     0.14200
H530        H  0.05315072  0.44676215  0.91550997     0.00000
H531        H  0.08002090  0.42485707  0.82890147     0.14500
H532        H  0.13990950  0.42026238  0.89357336     0.14300
C533        C  0.34882117  0.34935525  0.62060196     0.86100
C534        C  0.32693372  0.33001609  0.60333981    -0.54100
C535        C  0.31000173  0.31321684  0.62090707     0.09000
C536        C  0.31717309  0.31762096  0.65297976     0.20000
C537        C  0.32976723  0.36710344  0.64237813    -0.54900
C538        C  0.31305573  0.34986765  0.65975550     0.09100
C539        C  0.36653615  0.32766992  0.63978244    -0.54400
C540        C  0.34933847  0.31057624  0.65680071     0.09700
H541        H  0.32522065  0.32974821  0.57987008     0.14200
H542        H  0.30366627  0.30403776  0.66689357     0.00000
H543        H  0.32971517  0.39056726  0.64378556     0.14500
H544        H  0.39000255  0.32588458  0.63944519     0.14300
C545        C  0.40107031  0.40051005  0.56737650     0.86100
C546        C  0.42285893  0.38271297  0.54838981    -0.54100
C547        C  0.44002929  0.39989351  0.53140136     0.09000
C548        C  0.43302008  0.43212887  0.53511842     0.20000
C549        C  0.42024273  0.42246358  0.58469315    -0.54900
C550        C  0.43706819  0.43942157  0.56720275     0.09100
C551        C  0.38351634  0.41947983  0.54542831    -0.54400
C552        C  0.40084223  0.43614308  0.52813252     0.09700
H553        H  0.42455418  0.35927340  0.54871653     0.14200
H554        H  0.44669900  0.44572988  0.52132761     0.00000
H555        H  0.42021463  0.42437347  0.60815337     0.14500
H556        H  0.36002971  0.41956090  0.54388265     0.14300
C557        C  0.15132969  0.15106129  0.81804659     0.86100
C558        C  0.13406242  0.17018278  0.79607239    -0.54100
C559        C  0.15159678  0.18697928  0.77916278     0.09000
C560        C  0.18369707  0.18303513  0.78650260     0.20000
C561        C  0.17333083  0.13348694  0.79914184    -0.54900
C562        C  0.19069912  0.15082522  0.78253457     0.09100
C563        C  0.17025166  0.17288171  0.83583784    -0.54400
C564        C  0.18726841  0.19007040  0.81872842     0.09700
H565        H  0.11060972  0.17015014  0.79409978     0.14200
H566        H  0.19753871  0.19677895  0.77296171     0.00000
H567        H  0.17486632  0.11002695  0.79906947     0.14500
H568        H  0.16982740  0.17461973  0.85930797     0.14300
C569        C  0.09840046  0.09916231  0.86985231     0.86100
C570        C  0.07922135  0.11671477  0.89167175    -0.54100
C571        C  0.06241281  0.09933247  0.90881533     0.09000
C572        C  0.06646267  0.06716570  0.90172394     0.20000
C573        C  0.11595414  0.07732638  0.88899947    -0.54900
C574        C  0.09863900  0.06016661  0.90583597     0.09100
C575        C  0.07662121  0.08004676  0.85225338    -0.54400
C576        C  0.05947183  0.06321343  0.86954840     0.09700
H577        H  0.07927148  0.14016095  0.89338106     0.14200
H578        H  0.05274413  0.05341694  0.91530383     0.00000
H579        H  0.13943709  0.07571726  0.88901037     0.14500
H580        H  0.07495722  0.08011772  0.82878361     0.14300
C581        C  0.15075998  0.34894327  0.62074030     0.86100
C582        C  0.13321449  0.32984362  0.64259528    -0.54100
C583        C  0.15058050  0.31320073  0.65986652     0.09000
C584        C  0.18275551  0.31740246  0.65296333     0.20000
C585        C  0.17242233  0.36677266  0.63982969    -0.54900
C586        C  0.18963511  0.34963108  0.65677928     0.09100
C587        C  0.17010761  0.32706317  0.60340052    -0.54400
C588        C  0.18702752  0.31014182  0.62090516     0.09700
H589        H  0.10973402  0.32969634  0.64412473     0.14200
H590        H  0.19643233  0.30392131  0.66680415     0.00000
H591        H  0.17402971  0.39022573  0.63956975     0.14500
H592        H  0.17018419  0.32525923  0.57993147     0.14300
C593        C  0.09871200  0.40073027  0.56789150     0.86100
C594        C  0.07661058  0.41982836  0.58512410    -0.54100
C595        C  0.05963428  0.43655424  0.56753929     0.09000
C596        C  0.06702958  0.43244487  0.53549401     0.20000
C597        C  0.07990670  0.38300488  0.54589927    -0.54900
C598        C  0.06321883  0.40022380  0.52849563     0.09100
C599        C  0.11640957  0.42262791  0.54893022    -0.54400
C600        C  0.09919785  0.43967012  0.53185581     0.09700
H601        H  0.07470507  0.41991627  0.60857871     0.14200
H602        H  0.05341541  0.44603463  0.52166136     0.00000
H603        H  0.08001902  0.35954933  0.54435369     0.14500
H604        H  0.13986343  0.42448975  0.54934647     0.14300
C605        C  0.34951799  0.15075123  0.62090514     0.86100
C606        C  0.36710524  0.16985685  0.64274020    -0.54100
C607        C  0.34974566  0.18654182  0.66000113     0.09000
C608        C  0.31755841  0.18230525  0.65312263     0.20000
C609        C  0.32785741  0.13293519  0.63997448    -0.54900
C610        C  0.31064632  0.15007315  0.65689987     0.09100
C611        C  0.33020786  0.17263173  0.60355781    -0.54400
C612        C  0.31330038  0.18955319  0.62105568     0.09700
H613        H  0.39058563  0.17002953  0.64421568     0.14200
H614        H  0.30386496  0.19576351  0.66697614     0.00000
H615        H  0.32619079  0.10948673  0.63965507     0.14500
H616        H  0.33012438  0.17442032  0.58009272     0.14300
C617        C  0.40081957  0.09861402  0.56786791     0.86100
C618        C  0.42279879  0.07940523  0.58508691    -0.54100
C619        C  0.43973367  0.06268942  0.56747961     0.09000
C620        C  0.43244964  0.06692165  0.53542093     0.20000
C621        C  0.41971609  0.11636059  0.54602214    -0.54900
C622        C  0.43640515  0.09917978  0.52862898     0.09100
C623        C  0.38307862  0.07681588  0.54880909    -0.54400
C624        C  0.40028928  0.05973950  0.53174534     0.09700
H625        H  0.42467984  0.07925790  0.60854633     0.14200
H626        H  0.44601436  0.05336482  0.52149569     0.00000
H627        H  0.41975350  0.13982994  0.54463594     0.14500
H628        H  0.35962551  0.07497084  0.54923307     0.14300
C629        C  0.15104070  0.15059178  0.62087054     0.86100
C630        C  0.17007837  0.13282997  0.64263657    -0.54100
C631        C  0.18690601  0.15002874  0.65992382     0.09000
C632        C  0.18288857  0.18227633  0.65311645     0.20000
C633        C  0.13345081  0.17237714  0.64002489    -0.54900
C634        C  0.15075020  0.18943551  0.65695563     0.09100
C635        C  0.17298325  0.16983019  0.60352240    -0.54400
C636        C  0.19004737  0.18658696  0.62103489     0.09700
H637        H  0.17005368  0.10936898  0.64408652     0.14200
H638        H  0.19645674  0.19583395  0.66700256     0.00000
H639        H  0.10999189  0.17424958  0.63974309     0.14500
H640        H  0.17465946  0.17003599  0.58004630     0.14300
C641        C  0.09865438  0.09903079  0.56811070     0.86100
C642        C  0.11631444  0.08006120  0.54621825    -0.54100
C643        C  0.09907447  0.06336499  0.52886002     0.09000
C644        C  0.06687101  0.06740155  0.53573493     0.20000
C645        C  0.07689805  0.11680287  0.54906864    -0.54900
C646        C  0.05979012  0.09961279  0.53204467     0.09100
C647        C  0.07940883  0.07703114  0.58536118    -0.54400
C648        C  0.06265646  0.06005219  0.56777442     0.09700
H649        H  0.13980524  0.08000328  0.54476682     0.14200
H650        H  0.05326300  0.05386264  0.52185848     0.00000
H651        H  0.07513280  0.14023882  0.54943661     0.14500
H652        H  0.07931351  0.07514195  0.60882293     0.14300
O653        O  0.13118571  0.46943325  0.99911264    -0.74800
O654        O  0.13073009  0.03078176  0.93860760    -0.74800
O655        O  0.13085562  0.03036862  0.99958830    -0.74900
O656        O  0.13106687  0.46993623  0.93821323    -0.75000
O657        O  0.08397972  0.46679659  0.94653650    -0.74900
O658        O  0.08368082  0.03316514  0.99173062    -0.74900
O659        O  0.08355086  0.02291248  0.93591087    -0.74800
O660        O  0.08410352  0.47768563  0.00229047    -0.74900
Ni661      Ni  0.13360795  0.50018703  0.96887310     1.25400
Ni662      Ni  0.08278181  0.50012362  0.96896264     1.25400
C663        C  0.10631270  0.46353039  0.51076615     0.87400
C664        C  0.10574036  0.03666218  0.92735334     0.87300
C665        C  0.10625077  0.04185748  0.50539811     0.87300
C666        C  0.10612589  0.45848581  0.93255652     0.87500
O667        O  0.03304662  0.08410132  0.94657598    -0.74800
O668        O  0.46618249  0.08377214  0.99125416    -0.74800
O669        O  0.47755404  0.08384800  0.93564360    -0.74900
O670        O  0.02228065  0.08395876  0.00233813    -0.75000
O671        O  0.03028239  0.13112257  0.99940487    -0.74900
O672        O  0.46878564  0.13087960  0.93898479    -0.74900
O673        O  0.46918126  0.13085083  0.99980903    -0.74800
O674        O  0.02974334  0.13122076  0.93842274    -0.74900
Ni675      Ni  0.99980898  0.08263875  0.96909703     1.25400
Ni676      Ni  0.99957096  0.13350904  0.96918275     1.25400
C677        C  0.04119864  0.10631835  0.93258748     0.87400
C678        C  0.45787503  0.10652479  0.50523371     0.87300
C679        C  0.46337471  0.10592543  0.92744749     0.87300
C680        C  0.03589995  0.10676987  0.51102755     0.87500
O681        O  0.02986026  0.03038846  0.59938060    -0.74800
O682        O  0.46954364  0.46888969  0.59920325    -0.74800
O683        O  0.03023203  0.46934772  0.59929164    -0.74900
O684        O  0.46911332  0.02995623  0.59923444    -0.75000
O685        O  0.47687756  0.03275685  0.55202056    -0.74900
O686        O  0.02239354  0.46653559  0.55209833    -0.75300
O687        O  0.46680059  0.47696517  0.55203518    -0.74800
O688        O  0.03287509  0.02269419  0.55218357    -0.74900
Ni689      Ni  0.49968078  0.49958969  0.60196818     1.25400
Ni690      Ni  0.49989103  0.49978454  0.55108905     1.25400
C691        C  0.04123352  0.03639253  0.57450238     0.87400
C692        C  0.45835213  0.46307464  0.57419575     0.87300
C693        C  0.03609295  0.45802972  0.57435783     0.87300
C694        C  0.46321316  0.04122679  0.57429509     0.87500
O695        O  0.36821581  0.46934602  0.99923300    -0.74800
O696        O  0.36837898  0.03001537  0.93824366    -0.74800
O697        O  0.36846425  0.46909556  0.93837866    -0.74900
O698        O  0.36819011  0.03027150  0.99910993    -0.75000
O699        O  0.41506151  0.02114386  0.00296586    -0.74900
O700        O  0.41534824  0.47836046  0.93480709    -0.74900
O701        O  0.41523455  0.03387981  0.94754959    -0.74800
O702        O  0.41512420  0.46578034  0.99016736    -0.74900
Ni703      Ni  0.36568005  0.49967165  0.96869102     1.25400
Ni704      Ni  0.41641375  0.49980719  0.96883313     1.25400
C705        C  0.39367734  0.45760258  0.50468045     0.87400
C706        C  0.39325563  0.04180715  0.93308091     0.87300
C707        C  0.39340427  0.46393180  0.92669303     0.87300
C708        C  0.39319674  0.03575439  0.51077092     0.87500
O709        O  0.03051727  0.03030201  0.83746559    -0.74800
O710        O  0.46944104  0.46972614  0.83774018    -0.74800
O711        O  0.46957438  0.03068277  0.83790422    -0.74900
O712        O  0.03014059  0.46942548  0.83771436    -0.75000
O713        O  0.03374071  0.47822850  0.88467025    -0.74900
O714        O  0.46623067  0.02179260  0.88487025    -0.74900
O715        O  0.47798901  0.46629545  0.88476718    -0.74800
O716        O  0.02163582  0.03377331  0.88441299    -0.74900
Ni717      Ni  0.99984232  0.50004520  0.83526397     1.25400
Ni718      Ni  0.99990752  0.49995675  0.88603642     1.25400
C719        C  0.03587022  0.04193567  0.86237279     0.87400
C720        C  0.46389840  0.45815555  0.86263226     0.87300
C721        C  0.45796340  0.03599990  0.86284699     0.87300
C722        C  0.04181949  0.46398964  0.86259071     0.87500
O723        O  0.46977650  0.36886257  0.93790645    -0.74800
O724        O  0.03032333  0.36828352  0.99929323    -0.74800
O725        O  0.46930590  0.36846456  0.99873260    -0.74900
O726        O  0.03074099  0.36861256  0.93836324    -0.75000
O727        O  0.02227355  0.41570722  0.93538934    -0.74900
O728        O  0.47781943  0.41550591  0.00223794    -0.74900
O729        O  0.03347101  0.41537166  0.99097865    -0.74800
O730        O  0.46656857  0.41591954  0.94654112    -0.74900
Ni731      Ni  0.50002450  0.36614826  0.96853810     1.25400
Ni732      Ni  0.50003076  0.41698743  0.96878121     1.25400
C733        C  0.45826407  0.39382830  0.93244558     0.87400
C734        C  0.04201751  0.39304657  0.50476499     0.87300
C735        C  0.46382766  0.39267679  0.51031097     0.87300
C736        C  0.03632185  0.39362751  0.92701720     0.87500
C737        C  0.13246746  0.13227707  0.60218357    -0.13700
C738        C  0.11716516  0.11732781  0.58687838    -0.15200
C739        C  0.38265262  0.11707181  0.58672443    -0.13700
C740        C  0.36787860  0.13234235  0.60218162    -0.15200
C741        C  0.11707933  0.38234482  0.58670441    -0.13700
C742        C  0.13220905  0.36727153  0.60205363    -0.15200
C743        C  0.13247035  0.13263252  0.83629810    -0.13700
C744        C  0.11700060  0.11762356  0.85135920    -0.15200
C745        C  0.36726120  0.36760384  0.60173888    -0.13700
C746        C  0.38250439  0.38234573  0.58618961    -0.15200
C747        C  0.11744106  0.38263064  0.85156086    -0.13700
C748        C  0.13262860  0.36720925  0.83666374    -0.15200
C749        C  0.36737675  0.13267465  0.83675192    -0.13700
C750        C  0.38242235  0.11732972  0.85186721    -0.15200
C751        C  0.36741796  0.36748187  0.83626291    -0.13700
C752        C  0.38273470  0.38265474  0.85125775    -0.15200
O753        O  0.22855685  0.78406040  0.30442011    -0.74800
O754        O  0.27146754  0.71612709  0.30419682    -0.74800
O755        O  0.21603337  0.72856049  0.30437992    -0.74900
O756        O  0.28396971  0.77159992  0.30422785    -0.75000
O757        O  0.28015012  0.78095665  0.35105088    -0.74900
O758        O  0.22012125  0.71912393  0.35116538    -0.74900
O759        O  0.28092498  0.71998672  0.35100475    -0.74800
O760        O  0.21924843  0.78011892  0.35123297    -0.74900
Ni761      Ni  0.24999864  0.75009221  0.30302190     1.25400
Ni762      Ni  0.25011753  0.75005376  0.35370864     1.25400
C763        C  0.21405727  0.79195534  0.32637026     0.87400
C764        C  0.28598819  0.70816344  0.32611123     0.87300
C765        C  0.20831831  0.71388696  0.32629767     0.87300
C766        C  0.29187899  0.78617114  0.32613987     0.87500
O767        O  0.38118536  0.78090814  0.18922555    -0.74800
O768        O  0.38062548  0.71960599  0.24975583    -0.74800
O769        O  0.38128778  0.71980270  0.18893337    -0.74900
O770        O  0.38059076  0.78044962  0.24998810    -0.75000
O771        O  0.33351029  0.78355121  0.24143816    -0.74900
O772        O  0.33414567  0.71677690  0.19684971    -0.74900
O773        O  0.33345566  0.72772992  0.25245908    -0.74800
O774        O  0.33415749  0.77250360  0.18568492    -0.74900
Ni775      Ni  0.38341362  0.75019377  0.21947548     1.25400
Ni776      Ni  0.33256419  0.75014960  0.21907418     1.25400
C777        C  0.35631447  0.78667671  0.17769824     0.87400
C778        C  0.35560864  0.71387084  0.26100046     0.87300
C779        C  0.35641663  0.70825533  0.18321507     0.87300
C780        C  0.35560821  0.79183655  0.25552132     0.87500
O781        O  0.27187303  0.83432495  0.25277863    -0.74800
O782        O  0.22784988  0.83500521  0.18568460    -0.74800
O783        O  0.28341008  0.83499742  0.19727567    -0.74900
O784        O  0.21626694  0.83434213  0.24135377    -0.75000
O785        O  0.21971877  0.88131959  0.25037795    -0.74900
O786        O  0.27996810  0.88202801  0.18883091    -0.74900
O787        O  0.21893910  0.88192637  0.18951234    -0.74800
O788        O  0.28048427  0.88140162  0.24973499    -0.74900
Ni789      Ni  0.24984071  0.83340526  0.21923935     1.25400
Ni790      Ni  0.24977288  0.88420936  0.21961953     1.25400
C791        C  0.28594809  0.85639400  0.26114522     0.87400
C792        C  0.21347917  0.85706343  0.17779574     0.87300
C793        C  0.29162831  0.85715727  0.18325200     0.87300
C794        C  0.20824029  0.85633128  0.25577666     0.87500
O795        O  0.16675130  0.71670373  0.24191510    -0.74800
O796        O  0.16605140  0.78307840  0.19676450    -0.74800
O797        O  0.16666064  0.77253894  0.25244409    -0.74900
O798        O  0.16612858  0.72728863  0.18608694    -0.75000
O799        O  0.11904328  0.71907727  0.18942833    -0.74900
O800        O  0.11944546  0.78041909  0.24985478    -0.74900
O801        O  0.11888448  0.78012252  0.18898750    -0.74800
O802        O  0.11961566  0.71959595  0.25022113    -0.74900
Ni803      Ni  0.16763996  0.74990015  0.21927088     1.25400
Ni804      Ni  0.11676636  0.74980042  0.21962581     1.25400
C805        C  0.14462658  0.70832642  0.25589527     0.87400
C806        C  0.14377286  0.79157243  0.18313007     0.87300
C807        C  0.14445212  0.78624814  0.26105438     0.87300
C808        C  0.14393351  0.71325087  0.17798126     0.87500
O809        O  0.21947572  0.61847320  0.24965322    -0.74800
O810        O  0.28108802  0.61784222  0.18943571    -0.74800
O811        O  0.28026914  0.61853590  0.25028392    -0.74900
O812        O  0.22004202  0.61781577  0.18867540    -0.75000
O813        O  0.21663868  0.66483277  0.19716601    -0.74900
O814        O  0.28376852  0.66548714  0.24115050    -0.74900
O815        O  0.27215392  0.66475075  0.18552020    -0.74800
O816        O  0.22813134  0.66553678  0.25265260    -0.74900
Ni817      Ni  0.25021309  0.61561323  0.21951513     1.25400
Ni818      Ni  0.25018328  0.66640481  0.21908725     1.25400
C819        C  0.21405429  0.64348675  0.26109370     0.87400
C820        C  0.28656909  0.64269877  0.17771300     0.87300
C821        C  0.29177577  0.64353197  0.25561797     0.87300
C822        C  0.20842078  0.64271147  0.18310597     0.87500
O823        O  0.28068805  0.71943163  0.08906641    -0.74800
O824        O  0.21973926  0.78048287  0.08898798    -0.74800
O825        O  0.28061202  0.78049053  0.08898358    -0.74900
O826        O  0.21975990  0.71945926  0.08901638    -0.75000
O827        O  0.22687559  0.71726501  0.13633857    -0.74900
O828        O  0.27346918  0.78266713  0.13630375    -0.74900
O829        O  0.21749485  0.77335656  0.13630547    -0.74800
O830        O  0.28291748  0.72659689  0.13638069    -0.74900
Ni831      Ni  0.25020858  0.74995780  0.08660181     1.25400
Ni832      Ni  0.25019412  0.74996955  0.13754042     1.25400
C833        C  0.29168059  0.71315100  0.11406312     0.87400
C834        C  0.20872598  0.78677234  0.11397037     0.87300
C835        C  0.28673772  0.79158351  0.11396226     0.87300
C836        C  0.21354336  0.70841368  0.11399672     0.87500
C837        C  0.34871727  0.84906449  0.31797869     0.86100
C838        C  0.36605684  0.82992794  0.29604631    -0.54100
C839        C  0.34856305  0.81305156  0.27915339     0.09000
C840        C  0.31646219  0.81698385  0.28649267     0.20000
C841        C  0.32673502  0.86657581  0.29905544    -0.54900
C842        C  0.30944336  0.84918752  0.28247349     0.09100
C843        C  0.32982347  0.82726188  0.33581603    -0.54400
C844        C  0.31285770  0.81000882  0.31873037     0.09700
H845        H  0.38951153  0.83003017  0.29407923     0.14200
H846        H  0.30264122  0.80321417  0.27297298     0.00000
H847        H  0.32515168  0.89002844  0.29894697     0.14500
H848        H  0.33020209  0.82560695  0.35929266     0.14300
C849        C  0.40128988  0.90109020  0.36976273     0.86100
C850        C  0.42329889  0.92006315  0.35233812    -0.54100
C851        C  0.44046215  0.93672207  0.36978671     0.09000
C852        C  0.43329416  0.93275312  0.40193027     0.20000
C853        C  0.42016621  0.88333060  0.39162071    -0.54900
C854        C  0.43702656  0.90049955  0.40888677     0.09100
C855        C  0.38379477  0.92301971  0.38879143    -0.54400
C856        C  0.40115088  0.94001612  0.40572501     0.09700
H857        H  0.42505626  0.92008111  0.32886760     0.14200
H858        H  0.44699490  0.94636230  0.41573506     0.00000
H859        H  0.41994669  0.85987404  0.39321964     0.14500
H860        H  0.36033690  0.92489277  0.38858692     0.14300
C861        C  0.34871400  0.65123966  0.31828619     0.86100
C862        C  0.32688234  0.67019673  0.33596892    -0.54100
C863        C  0.30958205  0.68695889  0.31875576     0.09000
C864        C  0.31646327  0.68308865  0.28651977     0.20000
C865        C  0.32966126  0.63361232  0.29650263    -0.54900
C866        C  0.31272915  0.65087122  0.27942544     0.09100
C867        C  0.36607633  0.67322187  0.29915518    -0.54400
C868        C  0.34858478  0.69031585  0.28241844     0.09700
H869        H  0.32532238  0.67010638  0.35945036     0.14200
H870        H  0.30259041  0.69671641  0.27290056     0.00000
H871        H  0.32993089  0.61017149  0.29470201     0.14500
H872        H  0.38954523  0.67498636  0.29907866     0.14300
C873        C  0.40081942  0.59877978  0.37028018     0.86100
C874        C  0.42265439  0.61635903  0.38933109    -0.54100
C875        C  0.43979455  0.59904112  0.40614860     0.09000
C876        C  0.43277984  0.56682779  0.40220833     0.20000
C877        C  0.41988647  0.57688886  0.35273420    -0.54900
C878        C  0.43671294  0.55972844  0.37005642     0.09100
C879        C  0.38326455  0.57970860  0.39214817    -0.54400
C880        C  0.40061268  0.56289184  0.40928909     0.09700
H881        H  0.42432513  0.63980684  0.38926333     0.14200
H882        H  0.44650344  0.55311186  0.41586062     0.00000
H883        H  0.41980172  0.57518221  0.32925936     0.14500
H884        H  0.35979092  0.57979143  0.39386567     0.14300
C885        C  0.15117192  0.84878426  0.31836956     0.86100
C886        C  0.17296650  0.82985013  0.33615990    -0.54100
C887        C  0.19034652  0.81307714  0.31901993     0.09000
C888        C  0.18351861  0.81690147  0.28676593     0.20000
C889        C  0.17029023  0.86637289  0.29660040    -0.54900
C890        C  0.18727536  0.84907782  0.27960619     0.09100
C891        C  0.13386429  0.82679351  0.29922281    -0.54400
C892        C  0.15140735  0.80970054  0.28256420     0.09700
H893        H  0.17446948  0.83000212  0.35964600     0.14200
H894        H  0.19742044  0.80327508  0.27319706     0.00000
H895        H  0.16999890  0.88981120  0.29472693     0.14500
H896        H  0.11039529  0.82506397  0.29902969     0.14300
C897        C  0.09885056  0.90128226  0.37007448     0.86100
C898        C  0.07680976  0.88371456  0.38889817    -0.54100
C899        C  0.05966921  0.90102166  0.40572406     0.09000
C900        C  0.06688492  0.93320662  0.40201257     0.20000
C901        C  0.08000357  0.92335242  0.35252977    -0.54900
C902        C  0.06318588  0.94049827  0.36986887     0.09100
C903        C  0.11637952  0.92016910  0.39213769    -0.54400
C904        C  0.09903145  0.93700776  0.40926625     0.09700
H905        H  0.07502356  0.86027713  0.38869614     0.14200
H906        H  0.05314122  0.94685328  0.41570915     0.00000
H907        H  0.08022885  0.92519219  0.32906883     0.14500
H908        H  0.13984666  0.91999788  0.39393932     0.14300
C909        C  0.34886380  0.84950147  0.12057458     0.86100
C910        C  0.32694514  0.83024142  0.10326114    -0.54100
C911        C  0.30996185  0.81344650  0.12078632     0.09000
C912        C  0.31711423  0.81778065  0.15286680     0.20000
C913        C  0.32984267  0.86724808  0.14237680    -0.54900
C914        C  0.31307545  0.85002019  0.15970327     0.09100
C915        C  0.36651893  0.82773531  0.13972473    -0.54400
C916        C  0.34926356  0.81065508  0.15670840     0.09700
H917        H  0.32525048  0.83002001  0.07979049     0.14200
H918        H  0.30354038  0.80421331  0.16673029     0.00000
H919        H  0.32985643  0.89070671  0.14384273     0.14500
H920        H  0.38998071  0.82591090  0.13941521     0.14300
C921        C  0.40093935  0.90091970  0.06743412     0.86100
C922        C  0.42288815  0.88330086  0.04845873    -0.54100
C923        C  0.43993966  0.90061959  0.03147665     0.09000
C924        C  0.43269261  0.93278500  0.03521175     0.20000
C925        C  0.41992781  0.92299482  0.08477410    -0.54900
C926        C  0.43665527  0.94005886  0.06730703     0.09100
C927        C  0.38326818  0.91974087  0.04545975    -0.54400
C928        C  0.40049866  0.93649045  0.02815848     0.09700
H929        H  0.42473351  0.85986791  0.04875026     0.14200
H930        H  0.44628567  0.94652315  0.02146001     0.00000
H931        H  0.41992294  0.92484660  0.10823925     0.14500
H932        H  0.35978850  0.91958098  0.04382177     0.14300
C933        C  0.15146622  0.65097508  0.31831121     0.86100
C934        C  0.13415044  0.67022551  0.29644281    -0.54100
C935        C  0.15166000  0.68704080  0.27948943     0.09000
C936        C  0.18377251  0.68295227  0.28671719     0.20000
C937        C  0.17332928  0.63339378  0.29925409    -0.54900
C938        C  0.19065364  0.65072683  0.28260147     0.09100
C939        C  0.17051623  0.67269858  0.33607916    -0.54400
C940        C  0.18746977  0.68991553  0.31894610     0.09700
H941        H  0.11068824  0.67025206  0.29457304     0.14200
H942        H  0.19763365  0.69667691  0.27319406     0.00000
H943        H  0.17479278  0.60993189  0.29909910     0.14500
H944        H  0.17016447  0.67440558  0.35955072     0.14300
C945        C  0.09861174  0.59915321  0.37032548     0.86100
C946        C  0.07961277  0.61677654  0.39223274    -0.54100
C947        C  0.06273753  0.59946411  0.40938023     0.09000
C948        C  0.06655464  0.56727692  0.40224669     0.20000
C949        C  0.11607398  0.57716963  0.38936413    -0.54900
C950        C  0.09869921  0.56007731  0.40620006     0.09100
C951        C  0.07665185  0.58021472  0.35276866    -0.54400
C952        C  0.05943272  0.56347118  0.37008644     0.09700
H953        H  0.07979153  0.64022039  0.39396786     0.14200
H954        H  0.05281481  0.55355474  0.41586866     0.00000
H955        H  0.13954578  0.57539500  0.38929341     0.14500
H956        H  0.07492533  0.58033192  0.32930027     0.14300
C957        C  0.15078023  0.84908718  0.12068032     0.86100
C958        C  0.13329288  0.82989943  0.14252622    -0.54100
C959        C  0.15070541  0.81323669  0.15975352     0.09000
C960        C  0.18286970  0.81756051  0.15284810     0.20000
C961        C  0.17240979  0.86693745  0.13979100    -0.54900
C962        C  0.18967361  0.84981199  0.15671007     0.09100
C963        C  0.17017242  0.82726589  0.10331119    -0.54400
C964        C  0.18712075  0.81033546  0.12078456     0.09700
H965        H  0.10981395  0.82967372  0.14404343     0.14200
H966        H  0.19661317  0.80409725  0.16664245     0.00000
H967        H  0.17396107  0.89039354  0.13956559     0.14500
H968        H  0.17020832  0.82546120  0.07984384     0.14300
C969        C  0.09852991  0.90080948  0.06785698     0.86100
C970        C  0.07652357  0.91982086  0.08526268    -0.54100
C971        C  0.05941474  0.93654366  0.06783491     0.09000
C972        C  0.06658973  0.93256329  0.03570872     0.20000
C973        C  0.07961797  0.88311228  0.04592627    -0.54900
C974        C  0.06281197  0.90035157  0.02864339     0.09100
C975        C  0.11606476  0.92276996  0.04880376    -0.54400
C976        C  0.09873108  0.93980199  0.03182526     0.09700
H977        H  0.07475237  0.91984164  0.10872862     0.14200
H978        H  0.05285278  0.94619456  0.02201756     0.00000
H979        H  0.07981288  0.85966268  0.04427167     0.14500
H980        H  0.13952828  0.92459987  0.04900746     0.14300
C981        C  0.34943019  0.65069076  0.12086239     0.86100
C982        C  0.36692579  0.66980684  0.14275749    -0.54100
C983        C  0.34949584  0.68649559  0.15994554     0.09000
C984        C  0.31733474  0.68222927  0.15297923     0.20000
C985        C  0.32773300  0.63285554  0.13987209    -0.54900
C986        C  0.31046404  0.64997486  0.15675845     0.09100
C987        C  0.33015917  0.67258745  0.10346469    -0.54400
C988        C  0.31320057  0.68952570  0.12091438     0.09700
H989        H  0.39040072  0.67001642  0.14429652     0.14200
H990        H  0.30356974  0.69568671  0.16676452     0.00000
H991        H  0.32612817  0.60940327  0.13958816     0.14500
H992        H  0.33020996  0.67443702  0.08000316     0.14300
C993        C  0.40083229  0.59848283  0.06790894     0.86100
C994        C  0.42288578  0.57934216  0.08509219    -0.54100
C995        C  0.43978145  0.56261070  0.06746520     0.09000
C996        C  0.43233814  0.56664735  0.03543434     0.20000
C997        C  0.41965821  0.61613824  0.04593398    -0.54900
C998        C  0.43626016  0.59887731  0.02852639     0.09100
C999        C  0.38301642  0.57664557  0.04896946    -0.54400
C1000       C  0.40014321  0.55951410  0.03187685     0.09700
H1001       H  0.42492829  0.57933587  0.10853966     0.14200
H1002       H  0.44586685  0.55297964  0.02155451     0.00000
H1003       H  0.41972110  0.63960585  0.04447843     0.14500
H1004       H  0.35955513  0.57487241  0.04942925     0.14300
C1005       C  0.15107789  0.65072141  0.12057512     0.86100
C1006       C  0.17013433  0.63285670  0.14224644    -0.54100
C1007       C  0.18700951  0.64997200  0.15957191     0.09000
C1008       C  0.18304324  0.68225261  0.15286135     0.20000
C1009       C  0.13355837  0.67245262  0.13986454    -0.54900
C1010       C  0.15091512  0.68941236  0.15684570     0.09100
C1011       C  0.17300938  0.67000665  0.10325336    -0.54400
C1012       C  0.19014494  0.68667304  0.12078899     0.09700
H1013       H  0.17003364  0.60939707  0.14365625     0.14200
H1014       H  0.19668566  0.69576946  0.16670932     0.00000
H1015       H  0.11009980  0.67431958  0.13967888     0.14500
H1016       H  0.17463540  0.67029727  0.07977705     0.14300
C1017       C  0.09862419  0.59899373  0.06798017     0.86100
C1018       C  0.11629381  0.57998086  0.04613015    -0.54100
C1019       C  0.09906085  0.56316557  0.02887443     0.09000
C1020       C  0.06686647  0.56709224  0.03582833     0.20000
C1021       C  0.07678806  0.61659257  0.04886844    -0.54900
C1022       C  0.05972937  0.59926835  0.03192609     0.09100
C1023       C  0.07948693  0.57701891  0.08537976    -0.54400
C1024       C  0.06276762  0.55988361  0.06791908     0.09700
H1025       H  0.13978037  0.58006037  0.04455916     0.14200
H1026       H  0.05324674  0.55342133  0.02208825     0.00000
H1027       H  0.07502160  0.64003294  0.04904050     0.14500
H1028       H  0.07945822  0.57523855  0.10884824     0.14300
O1029       O  0.13131789  0.96932917  0.49935672    -0.74800
O1030       O  0.13080556  0.53076335  0.43887866    -0.74800
O1031       O  0.13111552  0.53038444  0.49980248    -0.74900
O1032       O  0.13106065  0.96979644  0.43849882    -0.75000
O1033       O  0.08401170  0.96652756  0.44700070    -0.74900
O1034       O  0.08399763  0.53328134  0.49170113    -0.74900
O1035       O  0.08367590  0.52254530  0.43602228    -0.74800
O1036       O  0.08428068  0.97773169  0.50270755    -0.74900
Ni1037     Ni  0.13363265  0.00007759  0.46912581     1.25400
Ni1038     Ni  0.08281706  0.99998688  0.46927402     1.25400
C1039       C  0.10577552  0.96347502  0.01046746     0.87400
C1040       C  0.10580610  0.53647864  0.42757204     0.87300
C1041       C  0.10622708  0.54182450  0.00527648     0.87300
C1042       C  0.10612856  0.95828091  0.43293015     0.87500
O1043       O  0.03351683  0.58445533  0.44732202    -0.74800
O1044       O  0.46643253  0.58417384  0.49129855    -0.74800
O1045       O  0.47749715  0.58418993  0.43567720    -0.74900
O1046       O  0.02176823  0.58451496  0.50289817    -0.75000
O1047       O  0.03029619  0.63154153  0.49943078    -0.74900
O1048       O  0.46884575  0.63124217  0.43888927    -0.74900
O1049       O  0.46936706  0.63126191  0.49975661    -0.74800
O1050       O  0.02982556  0.63143885  0.43854886    -0.74900
Ni1051     Ni  0.99986719  0.58300178  0.46925498     1.25400
Ni1052     Ni  0.99958008  0.63381422  0.46920460     1.25400
C1053       C  0.04153419  0.60656900  0.43309332     0.87400
C1054       C  0.45764424  0.60615097  0.00506841     0.87300
C1055       C  0.46335664  0.60626166  0.42742967     0.87300
C1056       C  0.03602963  0.60631605  0.01064855     0.87500
O1057       O  0.02994766  0.53039643  0.09968103    -0.74800
O1058       O  0.46945123  0.96907091  0.09932395    -0.74800
O1059       O  0.03042868  0.96940732  0.09985559    -0.74900
O1060       O  0.46905924  0.52988617  0.09916599    -0.75000
O1061       O  0.47756071  0.53333092  0.05211000    -0.74900
O1062       O  0.02182364  0.96621599  0.05282218    -0.75300
O1063       O  0.46629930  0.97771497  0.05228128    -0.74800
O1064       O  0.03330480  0.52215355  0.05260652    -0.74900
Ni1065     Ni  0.49964411  0.99967767  0.10209661     1.25400
Ni1066     Ni  0.49983416  0.99989113  0.05126909     1.25400
C1067       C  0.04148151  0.53614265  0.07481333     0.87400
C1068       C  0.45797954  0.96362327  0.07436522     0.87300
C1069       C  0.03588357  0.95789704  0.07491469     0.87300
C1070       C  0.46348709  0.54143520  0.07428988     0.87500
O1071       O  0.36865343  0.96912945  0.49929522    -0.74800
O1072       O  0.36862740  0.52990132  0.43825029    -0.74800
O1073       O  0.36899164  0.96901272  0.43846541    -0.74900
O1074       O  0.36840979  0.53019443  0.49908419    -0.75000
O1075       O  0.41538440  0.52154243  0.50270974    -0.74900
O1076       O  0.41598753  0.97789993  0.43521302    -0.74900
O1077       O  0.41557016  0.53356446  0.44716964    -0.74800
O1078       O  0.41566736  0.96589735  0.49067656    -0.74900
Ni1079     Ni  0.36615308  0.99953689  0.46878468     1.25400
Ni1080     Ni  0.41693437  0.99970619  0.46902718     1.25400
C1081       C  0.39323750  0.95763214  0.00448422     0.87400
C1082       C  0.39350118  0.54163116  0.43291875     0.87300
C1083       C  0.39396580  0.96366222  0.42695192     0.87300
C1084       C  0.39290454  0.53565202  0.01080662     0.87500
O1085       O  0.03048740  0.53061046  0.33801978    -0.74800
O1086       O  0.46928698  0.96976546  0.33786842    -0.74800
O1087       O  0.46960866  0.53074842  0.33794558    -0.74900
O1088       O  0.03034133  0.96967222  0.33792604    -0.75000
O1089       O  0.03404912  0.97852664  0.38486645    -0.74900
O1090       O  0.46620538  0.52181056  0.38489977    -0.74900
O1091       O  0.47836724  0.96596364  0.38477198    -0.74800
O1092       O  0.02136171  0.53428454  0.38491311    -0.74900
Ni1093     Ni  0.99998835  0.00020623  0.33558347     1.25400
Ni1094     Ni  0.00007422  0.00001213  0.38635185     1.25400
C1095       C  0.03571932  0.54234098  0.36290504     0.87400
C1096       C  0.46406504  0.95795922  0.36271781     0.87300
C1097       C  0.45800384  0.53608542  0.36288157     0.87300
C1098       C  0.04207618  0.96427897  0.36277767     0.87500
O1099       O  0.46977663  0.86810276  0.43777202    -0.74800
O1100       O  0.03023443  0.86821776  0.49924755    -0.74800
O1101       O  0.46911150  0.86756228  0.49864120    -0.74900
O1102       O  0.03054506  0.86876707  0.43831826    -0.75000
O1103       O  0.02188740  0.91583012  0.43526555    -0.74900
O1104       O  0.47817522  0.91445990  0.50251819    -0.74900
O1105       O  0.03364724  0.91525143  0.49077735    -0.74800
O1106       O  0.46633321  0.91503821  0.44693665    -0.74900
Ni1107     Ni  0.49992061  0.86520594  0.46852298     1.25400
Ni1108     Ni  0.50001559  0.91597488  0.46885029     1.25400
C1109       C  0.45819859  0.89309375  0.43252579     0.87400
C1110       C  0.04171525  0.89318052  0.00482211     0.87300
C1111       C  0.46369544  0.89356056  0.01028633     0.87300
C1112       C  0.03602043  0.89377766  0.42691906     0.87500
C1113       C  0.13244080  0.63245993  0.10187209    -0.13700
C1114       C  0.11712457  0.61745106  0.08662475    -0.15200
C1115       C  0.38271445  0.61700708  0.08677868    -0.13700
C1116       C  0.36789298  0.63228960  0.10219735    -0.15200
C1117       C  0.11702145  0.88242641  0.08658880    -0.13700
C1118       C  0.13218170  0.86739656  0.10197502    -0.15200
C1119       C  0.13267588  0.63253053  0.33664169    -0.13700
C1120       C  0.11726048  0.61754001  0.35178873    -0.15200
C1121       C  0.36732200  0.86778104  0.10175771    -0.13700
C1122       C  0.38249669  0.88261392  0.08622839    -0.15200
C1123       C  0.11732747  0.88270060  0.35162500    -0.13700
C1124       C  0.13249346  0.86735112  0.33662373    -0.15200
C1125       C  0.36729664  0.63269778  0.33667662    -0.13700
C1126       C  0.38236995  0.61735993  0.35179005    -0.15200
C1127       C  0.36741655  0.86761953  0.33616802    -0.13700
C1128       C  0.38273053  0.88276035  0.35119950    -0.15200
O1129       O  0.22875959  0.78387010  0.80441567    -0.74800
O1130       O  0.27139895  0.71575061  0.80427391    -0.74800
O1131       O  0.21600526  0.72842798  0.80429244    -0.74900
O1132       O  0.28413844  0.77118333  0.80433466    -0.75000
O1133       O  0.28015473  0.78060096  0.85113385    -0.74900
O1134       O  0.21996467  0.71891569  0.85107365    -0.74900
O1135       O  0.28084533  0.71966531  0.85107879    -0.74800
O1136       O  0.21929875  0.77985883  0.85120309    -0.74900
Ni1137     Ni  0.25007228  0.74980796  0.80303744     1.25400
Ni1138     Ni  0.25006817  0.74975019  0.85372086     1.25400
C1139       C  0.21421003  0.79173946  0.82634865     0.87400
C1140       C  0.28596774  0.70787220  0.82618933     0.87300
C1141       C  0.20814739  0.71379364  0.82618433     0.87300
C1142       C  0.29195381  0.78580065  0.82625212     0.87500
O1143       O  0.38126662  0.78103182  0.68937511    -0.74800
O1144       O  0.38091815  0.71960771  0.74980422    -0.74800
O1145       O  0.38160101  0.71995525  0.68890463    -0.74900
O1146       O  0.38067009  0.78044040  0.75013512    -0.75000
O1147       O  0.33359976  0.78349518  0.74149583    -0.74900
O1148       O  0.33451453  0.71668378  0.69698037    -0.74900
O1149       O  0.33376167  0.72773152  0.75256811    -0.74800
O1150       O  0.33428345  0.77239986  0.68575452    -0.74900
Ni1151     Ni  0.38361780  0.75026583  0.71955737     1.25400
Ni1152     Ni  0.33278655  0.75007625  0.71916255     1.25400
C1153       C  0.35638332  0.78668416  0.67781459     0.87400
C1154       C  0.35591696  0.71388741  0.76110251     0.87300
C1155       C  0.35675982  0.70833268  0.68320186     0.87300
C1156       C  0.35565795  0.79177726  0.75564091     0.87500
O1157       O  0.27190119  0.83409746  0.75281485    -0.74800
O1158       O  0.22786892  0.83485121  0.68570353    -0.74800
O1159       O  0.28342044  0.83488231  0.69731814    -0.74900
O1160       O  0.21630446  0.83407534  0.74135718    -0.75000
O1161       O  0.21971396  0.88105222  0.75044078    -0.74900
O1162       O  0.27993036  0.88191109  0.68890224    -0.74900
O1163       O  0.21892122  0.88176183  0.68961599    -0.74800
O1164       O  0.28045996  0.88118958  0.74985189    -0.74900
Ni1165     Ni  0.24986853  0.83321509  0.71926168     1.25400
Ni1166     Ni  0.24975637  0.88402146  0.71971202     1.25400
C1167       C  0.28592535  0.85617272  0.76125294     0.87400
C1168       C  0.21346924  0.85691365  0.67786983     0.87300
C1169       C  0.29158917  0.85704887  0.68328699     0.87300
C1170       C  0.20826050  0.85604545  0.75578990     0.87500
O1171       O  0.16646906  0.71632193  0.74140928    -0.74800
O1172       O  0.16587214  0.78325778  0.69709755    -0.74800
O1173       O  0.16656038  0.77204193  0.75266632    -0.74900
O1174       O  0.16579658  0.72760068  0.68573142    -0.75000
O1175       O  0.11880621  0.71903791  0.68944607    -0.74900
O1176       O  0.11942945  0.78036960  0.74985454    -0.74900
O1177       O  0.11877323  0.78007996  0.68898644    -0.74800
O1178       O  0.11942974  0.71960327  0.75015279    -0.74900
Ni1179     Ni  0.16744007  0.74980136  0.71919240     1.25400
Ni1180     Ni  0.11660436  0.74978507  0.71961072     1.25400
C1181       C  0.14439451  0.70814051  0.75558402     0.87400
C1182       C  0.14364887  0.79163072  0.68329682     0.87300
C1183       C  0.14443398  0.78594229  0.76119482     0.87300
C1184       C  0.14365717  0.71334504  0.67785462     0.87500
O1185       O  0.21961664  0.61862202  0.74970002    -0.74800
O1186       O  0.28123862  0.61811732  0.68950391    -0.74800
O1187       O  0.28043916  0.61873698  0.75030138    -0.74900
O1188       O  0.22016933  0.61802354  0.68878837    -0.75000
O1189       O  0.21684258  0.66507828  0.69713216    -0.74900
O1190       O  0.28379871  0.66574118  0.74136574    -0.74900
O1191       O  0.27245075  0.66506986  0.68571558    -0.74800
O1192       O  0.22810983  0.66571752  0.75268636    -0.74900
Ni1193     Ni  0.25036762  0.61584175  0.71957507     1.25400
Ni1194     Ni  0.25030653  0.66665700  0.71919286     1.25400
C1195       C  0.21406492  0.64362630  0.76109047     0.87400
C1196       C  0.28681138  0.64298857  0.67786183     0.87300
C1197       C  0.29190366  0.64373305  0.75569343     0.87300
C1198       C  0.20853925  0.64290551  0.68319426     0.87500
O1199       O  0.28069578  0.71941795  0.58902677    -0.74800
O1200       O  0.21950310  0.78024918  0.58902383    -0.74800
O1201       O  0.28041069  0.78045734  0.58901110    -0.74900
O1202       O  0.21971640  0.71921317  0.58901509    -0.75000
O1203       O  0.22630408  0.71752220  0.63642928    -0.74900
O1204       O  0.27386744  0.78209193  0.63643887    -0.74900
O1205       O  0.21779751  0.77366965  0.63644087    -0.74800
O1206       O  0.28237883  0.72598387  0.63644512    -0.74900
Ni1207     Ni  0.25008430  0.74982429  0.58662392     1.25400
Ni1208     Ni  0.25008767  0.74981229  0.63761445     1.25400
C1209       C  0.29147126  0.71290990  0.61405967     0.87400
C1210       C  0.20875248  0.78679303  0.61405776     0.87300
C1211       C  0.28684161  0.79126923  0.61404173     0.87300
C1212       C  0.21323960  0.70842783  0.61404632     0.87500
C1213       C  0.34863469  0.84885393  0.81819302     0.86100
C1214       C  0.36600617  0.82978494  0.79623569    -0.54100
C1215       C  0.34854595  0.81291074  0.77931106     0.09000
C1216       C  0.31643426  0.81676086  0.78664619     0.20000
C1217       C  0.32662062  0.86635103  0.79928531    -0.54900
C1218       C  0.30936690  0.84896254  0.78265798     0.09100
C1219       C  0.32978341  0.82698211  0.83599295    -0.54400
C1220       C  0.31285529  0.80971861  0.81887587     0.09700
H1221       H  0.38945912  0.82993366  0.79426765     0.14200
H1222       H  0.30263670  0.80297848  0.77310742     0.00000
H1223       H  0.32501643  0.88980399  0.79919394     0.14500
H1224       H  0.33017697  0.82527617  0.85946635     0.14300
C1225       C  0.40112463  0.90126820  0.86972356     0.86100
C1226       C  0.42309412  0.92021027  0.85217060    -0.54100
C1227       C  0.44018260  0.93707773  0.86951490     0.09000
C1228       C  0.43293898  0.93333331  0.90166906     0.20000
C1229       C  0.42007771  0.88377578  0.89172928    -0.54900
C1230       C  0.43686016  0.90116792  0.90885117     0.09100
C1231       C  0.38350278  0.92324309  0.88858690    -0.54400
C1232       C  0.40075519  0.94044527  0.90541167     0.09700
H1233       H  0.42494579  0.91997562  0.82870858     0.14200
H1234       H  0.44653180  0.94710260  0.91540271     0.00000
H1235       H  0.42002025  0.86033118  0.89347548     0.14500
H1236       H  0.36003230  0.92494448  0.88840856     0.14300
C1237       C  0.34886556  0.65119293  0.81829770     0.86100
C1238       C  0.32700611  0.67007369  0.83601762    -0.54100
C1239       C  0.30973567  0.68688119  0.81882998     0.09000
C1240       C  0.31671261  0.68316692  0.78660313     0.20000
C1241       C  0.32984315  0.63364923  0.79643683    -0.54900
C1242       C  0.31294634  0.65098414  0.77941459     0.09100
C1243       C  0.36629606  0.67321369  0.79927632    -0.54400
C1244       C  0.34885619  0.69036622  0.78255491     0.09700
H1245       H  0.32534438  0.66983420  0.85948920     0.14200
H1246       H  0.30287332  0.69686318  0.77302685     0.00000
H1247       H  0.33005770  0.61021081  0.79458908     0.14500
H1248       H  0.38976971  0.67492273  0.79922130     0.14300
C1249       C  0.40072915  0.59861015  0.87021340     0.86100
C1250       C  0.42257608  0.61617361  0.88925328    -0.54100
C1251       C  0.43966135  0.59884548  0.90610762     0.09000
C1252       C  0.43255776  0.56665681  0.90224540     0.20000
C1253       C  0.41976421  0.57666558  0.85271940    -0.54900
C1254       C  0.43654520  0.55952306  0.87009282     0.09100
C1255       C  0.38308480  0.57964163  0.89206878    -0.54400
C1256       C  0.40036036  0.56284629  0.90927715     0.09700
H1257       H  0.42432351  0.63961622  0.88912242     0.14200
H1258       H  0.44620322  0.55294933  0.91599528     0.00000
H1259       H  0.41975447  0.57496740  0.82924376     0.14500
H1260       H  0.35961218  0.57980340  0.89376273     0.14300
C1261       C  0.15133856  0.84852471  0.81841964     0.86100
C1262       C  0.17318449  0.82963576  0.83618144    -0.54100
C1263       C  0.19050743  0.81283550  0.81901127     0.09000
C1264       C  0.18359684  0.81658763  0.78677275     0.20000
C1265       C  0.17038330  0.86607941  0.79658838    -0.54900
C1266       C  0.18732062  0.84876437  0.77958796     0.09100
C1267       C  0.13398376  0.82649857  0.79936263    -0.54400
C1268       C  0.15147862  0.80938130  0.78268177     0.09700
H1269       H  0.17476483  0.82983370  0.85966102     0.14200
H1270       H  0.19745341  0.80292741  0.77317357     0.00000
H1271       H  0.17010300  0.88951526  0.79469580     0.14500
H1272       H  0.11051083  0.82477151  0.79923264     0.14300
C1273       C  0.09891638  0.90115493  0.86982244     0.86100
C1274       C  0.07702951  0.88352062  0.88875435    -0.54100
C1275       C  0.05976858  0.90078814  0.90548250     0.09000
C1276       C  0.06673017  0.93302070  0.90156060     0.20000
C1277       C  0.07989845  0.92299784  0.85214509    -0.54900
C1278       C  0.06295995  0.94013731  0.86938543     0.09100
C1279       C  0.11631387  0.92029709  0.89177242    -0.54400
C1280       C  0.09884412  0.93711458  0.90879868     0.09700
H1281       H  0.07544407  0.86006968  0.88870669     0.14200
H1282       H  0.05289526  0.94665137  0.91515829     0.00000
H1283       H  0.08015702  0.92474356  0.82867824     0.14500
H1284       H  0.13977870  0.92030100  0.89357715     0.14300
C1285       C  0.34879898  0.84938628  0.62061761     0.86100
C1286       C  0.32694790  0.83003604  0.60331298    -0.54100
C1287       C  0.30999265  0.81322648  0.62085097     0.09000
C1288       C  0.31710382  0.81765997  0.65293992     0.20000
C1289       C  0.32971923  0.86714050  0.64235263    -0.54900
C1290       C  0.31299208  0.84991183  0.65970763     0.09100
C1291       C  0.36648689  0.82771373  0.63983017    -0.54400
C1292       C  0.34926386  0.81062806  0.65682423     0.09700
H1293       H  0.32529245  0.82975219  0.57983843     0.14200
H1294       H  0.30357222  0.80409190  0.66684168     0.00000
H1295       H  0.32969385  0.89060291  0.64378041     0.14500
H1296       H  0.38995628  0.82594011  0.63954295     0.14300
C1297       C  0.40105479  0.90053026  0.56746090     0.86100
C1298       C  0.42278187  0.88264125  0.54850102    -0.54100
C1299       C  0.43993285  0.89973925  0.53142466     0.09000
C1300       C  0.43295981  0.93199757  0.53503127     0.20000
C1301       C  0.42028460  0.92253122  0.58466279    -0.54900
C1302       C  0.43709255  0.93941057  0.56707122     0.09100
C1303       C  0.38346319  0.91944426  0.54549827    -0.54400
C1304       C  0.40076321  0.93603884  0.52811640     0.09700
H1305       H  0.42447554  0.85920292  0.54893247     0.14200
H1306       H  0.44663241  0.94552252  0.52116579     0.00000
H1307       H  0.42031125  0.92452269  0.60811491     0.14500
H1308       H  0.35997195  0.91956784  0.54403270     0.14300
C1309       C  0.15117679  0.65099516  0.81803031     0.86100
C1310       C  0.13390349  0.67016131  0.79610099    -0.54100
C1311       C  0.15143864  0.68696982  0.77920837     0.09000
C1312       C  0.18353812  0.68300112  0.78653321     0.20000
C1313       C  0.17315871  0.63343620  0.79907241    -0.54900
C1314       C  0.19052558  0.65079883  0.78247737     0.09100
C1315       C  0.17012551  0.67276542  0.83585312    -0.54400
C1316       C  0.18714698  0.68996968  0.81876989     0.09700
H1317       H  0.11045119  0.67012838  0.79412702     0.14200
H1318       H  0.19736845  0.69677507  0.77302482     0.00000
H1319       H  0.17467491  0.60997527  0.79895292     0.14500
H1320       H  0.16972236  0.67445284  0.85932690     0.14300
C1321       C  0.09831741  0.59916695  0.86993446     0.86100
C1322       C  0.07918987  0.61670620  0.89179719    -0.54100
C1323       C  0.06244875  0.59930868  0.90898553     0.09000
C1324       C  0.06653937  0.56713330  0.90193462     0.20000
C1325       C  0.11596646  0.57736033  0.88901296    -0.54900
C1326       C  0.09874047  0.56016770  0.90589414     0.09100
C1327       C  0.07649022  0.58003115  0.85242460    -0.54400
C1328       C  0.05942434  0.56318717  0.86979240     0.09700
H1329       H  0.07915964  0.64015574  0.89344675     0.14200
H1330       H  0.05291539  0.55335035  0.91558837     0.00000
H1331       H  0.13945144  0.57575225  0.88890571     0.14500
H1332       H  0.07471914  0.58011257  0.82896106     0.14300
C1333       C  0.15071918  0.84901069  0.62080805     0.86100
C1334       C  0.13322384  0.82984613  0.64264482    -0.54100
C1335       C  0.15062430  0.81319582  0.65987359     0.09000
C1336       C  0.18278711  0.81746157  0.65296216     0.20000
C1337       C  0.17237490  0.86683854  0.63991214    -0.54900
C1338       C  0.18963046  0.84969402  0.65681951     0.09100
C1339       C  0.17008743  0.82718334  0.60341907    -0.54400
C1340       C  0.18704965  0.81025812  0.62088236     0.09700
H1341       H  0.10974268  0.82965376  0.64418614     0.14200
H1342       H  0.19647498  0.80398207  0.66679480     0.00000
H1343       H  0.17395255  0.89029473  0.63968484     0.14500
H1344       H  0.17014041  0.82541109  0.57994702     0.14300
C1345       C  0.09862547  0.90078439  0.56794002     0.86100
C1346       C  0.07653987  0.91995188  0.58511449    -0.54100
C1347       C  0.05962561  0.93668839  0.56747779     0.09000
C1348       C  0.06704722  0.93251434  0.53544886     0.20000
C1349       C  0.07979513  0.88306345  0.54595538    -0.54900
C1350       C  0.06314629  0.90028548  0.52850963     0.09100
C1351       C  0.11638447  0.92263024  0.54897074    -0.54400
C1352       C  0.09922988  0.93969034  0.53185637     0.09700
H1353       H  0.07460225  0.92008102  0.60856569     0.14200
H1354       H  0.05349975  0.94611588  0.52156590     0.00000
H1355       H  0.07983174  0.85960230  0.54447633     0.14500
H1356       H  0.13983994  0.92447512  0.54944344     0.14300
C1357       C  0.34953262  0.65079345  0.62080675     0.86100
C1358       C  0.36713727  0.66997737  0.64256555    -0.54100
C1359       C  0.34978839  0.68668697  0.65981481     0.09000
C1360       C  0.31759722  0.68240533  0.65297976     0.20000
C1361       C  0.32791534  0.63301440  0.63997191    -0.54900
C1362       C  0.31071884  0.65018690  0.65688447     0.09100
C1363       C  0.33016832  0.67260094  0.60342120    -0.54400
C1364       C  0.31326137  0.68955016  0.62089285     0.09700
H1365       H  0.39061801  0.67014521  0.64403155     0.14200
H1366       H  0.30392273  0.69588453  0.66681576     0.00000
H1367       H  0.32627674  0.60956162  0.63973315     0.14500
H1368       H  0.33003406  0.67430591  0.57995041     0.14300
C1369       C  0.40088359  0.59853528  0.56791919     0.86100
C1370       C  0.42278782  0.57931764  0.58522790    -0.54100
C1371       C  0.43975877  0.56256070  0.56769463     0.09000
C1372       C  0.43255405  0.56673912  0.53560840     0.20000
C1373       C  0.41986254  0.61621397  0.54608695    -0.54900
C1374       C  0.43656348  0.59897461  0.52875821     0.09100
C1375       C  0.38315733  0.57675301  0.54883600    -0.54400
C1376       C  0.40038047  0.55963308  0.53183290     0.09700
H1377       H  0.42462598  0.57922939  0.60868956     0.14200
H1378       H  0.44614774  0.55313107  0.52175847     0.00000
H1379       H  0.41990947  0.63967845  0.54463143     0.14500
H1380       H  0.35969651  0.57499228  0.54915252     0.14300
C1381       C  0.15099770  0.65053736  0.62082138     0.86100
C1382       C  0.17013050  0.63280860  0.64252957    -0.54100
C1383       C  0.18696176  0.65004119  0.65977473     0.09000
C1384       C  0.18284360  0.68227966  0.65298460     0.20000
C1385       C  0.13340017  0.67226876  0.64002848    -0.54900
C1386       C  0.15069859  0.68936246  0.65691808     0.09100
C1387       C  0.17284992  0.66983333  0.60341380    -0.54400
C1388       C  0.18991745  0.68663086  0.62088518     0.09700
H1389       H  0.17015289  0.60934828  0.64398279     0.14200
H1390       H  0.19640641  0.69585280  0.66684673     0.00000
H1391       H  0.10993565  0.67407627  0.63981466     0.14500
H1392       H  0.17446682  0.67004170  0.57993404     0.14300
C1393       C  0.09857309  0.59893173  0.56821117     0.86100
C1394       C  0.11623249  0.57993562  0.54634922    -0.54100
C1395       C  0.09898659  0.56322967  0.52901301     0.09000
C1396       C  0.06677927  0.56727516  0.53588581     0.20000
C1397       C  0.07682942  0.61668686  0.54913815    -0.54900
C1398       C  0.05972157  0.59948422  0.53212786     0.09100
C1399       C  0.07933672  0.57695981  0.58549701    -0.54400
C1400       C  0.06259755  0.55995189  0.56793445     0.09700
H1401       H  0.13972221  0.57988059  0.54488824     0.14200
H1402       H  0.05313810  0.55372871  0.52204823     0.00000
H1403       H  0.07510327  0.64012599  0.54944339     0.14500
H1404       H  0.07927310  0.57507474  0.60895744     0.14300
O1405       O  0.13075098  0.96940288  0.99921505    -0.74800
O1406       O  0.13096670  0.53091394  0.93861798    -0.74800
O1407       O  0.13118111  0.53043641  0.99956650    -0.74900
O1408       O  0.13074750  0.96981000  0.93829357    -0.75000
O1409       O  0.08354718  0.96704005  0.94611166    -0.74900
O1410       O  0.08409123  0.53345240  0.99133017    -0.74900
O1411       O  0.08388489  0.52256280  0.93565434    -0.74800
O1412       O  0.08357055  0.97727085  0.00199563    -0.74900
Ni1413     Ni  0.13324548  0.00009499  0.96892333     1.25400
Ni1414     Ni  0.08236848  0.00010082  0.96894300     1.25400
C1415       C  0.10640462  0.96359652  0.51082470     0.87400
C1416       C  0.10597387  0.53657561  0.92725765     0.87300
C1417       C  0.10615382  0.54175283  0.50553924     0.87300
C1418       C  0.10578318  0.95854795  0.93237718     0.87500
O1419       O  0.03291741  0.58411507  0.94660348    -0.74800
O1420       O  0.46602415  0.58409028  0.99099532    -0.74800
O1421       O  0.47755001  0.58403830  0.93545969    -0.74900
O1422       O  0.02212914  0.58410624  0.00234039    -0.75000
O1423       O  0.03018441  0.63125312  0.99927525    -0.74900
O1424       O  0.46865692  0.63104273  0.93882374    -0.74900
O1425       O  0.46911547  0.63113925  0.99964120    -0.74800
O1426       O  0.02963696  0.63122563  0.93836556    -0.74900
Ni1427     Ni  0.99967294  0.58272000  0.96908358     1.25400
Ni1428     Ni  0.99944247  0.63358890  0.96908188     1.25400
C1429       C  0.04112514  0.60631585  0.93262952     0.87400
C1430       C  0.45798973  0.60625209  0.50530413     0.87300
C1431       C  0.46328218  0.60607067  0.92730081     0.87300
C1432       C  0.03592307  0.60664464  0.51099628     0.87500
O1433       O  0.02984285  0.53028354  0.59955350    -0.74800
O1434       O  0.46947368  0.96908662  0.59895510    -0.74800
O1435       O  0.03017501  0.96946736  0.59917043    -0.74900
O1436       O  0.46902501  0.52975719  0.59950887    -0.75000
O1437       O  0.47715407  0.53285862  0.55238019    -0.74900
O1438       O  0.02253386  0.96678978  0.55193333    -0.75300
O1439       O  0.46700870  0.97676164  0.55169880    -0.74800
O1440       O  0.03305462  0.52238781  0.55240378    -0.74900
Ni1441     Ni  0.49967884  0.99970950  0.60168853     1.25400
Ni1442     Ni  0.49989673  0.99989282  0.55076352     1.25400
C1443       C  0.04128611  0.53621256  0.57469247     0.87400
C1444       C  0.45842642  0.96306516  0.57393566     0.87300
C1445       C  0.03612556  0.95821530  0.57423278     0.87300
C1446       C  0.46328895  0.54116879  0.57459249     0.87500
O1447       O  0.36833789  0.96935237  0.99925944    -0.74800
O1448       O  0.36824718  0.52995693  0.93814529    -0.74800
O1449       O  0.36854704  0.96918488  0.93838509    -0.74900
O1450       O  0.36805265  0.53032389  0.99900709    -0.75000
O1451       O  0.41492546  0.52123243  0.00287001    -0.74900
O1452       O  0.41543066  0.97844971  0.93479049    -0.74900
O1453       O  0.41510193  0.53381936  0.94743954    -0.74800
O1454       O  0.41523628  0.96571809  0.99014455    -0.74900
Ni1455     Ni  0.36580054  0.99969712  0.96874797     1.25400
Ni1456     Ni  0.41653599  0.99980492  0.96887341     1.25400
C1457       C  0.39358027  0.95752529  0.50469504     0.87400
C1458       C  0.39312275  0.54175340  0.93298265     0.87300
C1459       C  0.39346960  0.96405777  0.92665307     0.87300
C1460       C  0.39327049  0.53576560  0.51073549     0.87500
O1461       O  0.03039375  0.53032585  0.83779361    -0.74800
O1462       O  0.46941166  0.96983199  0.83755516    -0.74800
O1463       O  0.46950132  0.53056838  0.83801767    -0.74900
O1464       O  0.03013988  0.96936047  0.83734378    -0.75000
O1465       O  0.03381484  0.97823578  0.88427332    -0.74900
O1466       O  0.46630451  0.52193499  0.88504637    -0.74900
O1467       O  0.47818616  0.96618588  0.88451885    -0.74800
O1468       O  0.02159289  0.53378836  0.88476602    -0.74900
Ni1469     Ni  0.99989911  0.00006122  0.83491629     1.25400
Ni1470     Ni  0.99997551  0.99993934  0.88566834     1.25400
C1471       C  0.03578871  0.54194422  0.86269430     0.87400
C1472       C  0.46395903  0.95816365  0.86242381     0.87300
C1473       C  0.45796410  0.53600600  0.86296479     0.87300
C1474       C  0.04183148  0.96393031  0.86221801     0.87500
O1475       O  0.46971047  0.86906184  0.93786298    -0.74800
O1476       O  0.03021480  0.86825605  0.99915867    -0.74800
O1477       O  0.46929561  0.86867033  0.99869749    -0.74900
O1478       O  0.03068275  0.86853038  0.93819697    -0.75000
O1479       O  0.02212659  0.91559447  0.93509509    -0.74900
O1480       O  0.47781521  0.91571814  0.00217850    -0.74900
O1481       O  0.03358471  0.91530767  0.99068701    -0.74800
O1482       O  0.46655803  0.91613331  0.94646438    -0.74900
Ni1483     Ni  0.49996748  0.86631426  0.96846939     1.25400
Ni1484     Ni  0.50003263  0.91715896  0.96870726     1.25400
C1485       C  0.45822868  0.89403603  0.93238718     0.87400
C1486       C  0.04184848  0.89311159  0.50484093     0.87300
C1487       C  0.46374777  0.89243333  0.51039242     0.87300
C1488       C  0.03620550  0.89351983  0.92676677     0.87500
C1489       C  0.13241516  0.63219496  0.60219643    -0.13700
C1490       C  0.11708964  0.61723609  0.58693903    -0.15200
C1491       C  0.38268693  0.61704852  0.58669838    -0.13700
C1492       C  0.36789106  0.63234611  0.60211150    -0.15200
C1493       C  0.11695895  0.88239795  0.58680541    -0.13700
C1494       C  0.13211221  0.86733926  0.60215752    -0.15200
C1495       C  0.13231124  0.63257955  0.83627470    -0.13700
C1496       C  0.11684380  0.61761547  0.85137357    -0.15200
C1497       C  0.36726587  0.86764870  0.60182360    -0.13700
C1498       C  0.38251840  0.88242021  0.58632771    -0.15200
C1499       C  0.11751327  0.88257422  0.85151520    -0.13700
C1500       C  0.13270829  0.86714584  0.83663920    -0.15200
C1501       C  0.36736345  0.63258305  0.83662991    -0.13700
C1502       C  0.38237113  0.61719432  0.85171365    -0.15200
C1503       C  0.36732577  0.86743632  0.83638255    -0.13700
C1504       C  0.38263749  0.88269383  0.85130987    -0.15200
O1505       O  0.72881640  0.28400633  0.30444200    -0.74800
O1506       O  0.77153632  0.21593106  0.30427214    -0.74800
O1507       O  0.71612371  0.22852614  0.30434076    -0.74900
O1508       O  0.78423173  0.27139267  0.30435144    -0.75000
O1509       O  0.78030025  0.28076061  0.35116030    -0.74900
O1510       O  0.72010809  0.21905038  0.35112699    -0.74900
O1511       O  0.78097272  0.21979925  0.35108213    -0.74800
O1512       O  0.71938902  0.27998975  0.35123124    -0.74900
Ni1513     Ni  0.75017465  0.24996843  0.30306167     1.25400
Ni1514     Ni  0.75019881  0.24989952  0.35374349     1.25400
C1515       C  0.71424973  0.29184656  0.32637317     0.87400
C1516       C  0.78606606  0.20799137  0.32619003     0.87300
C1517       C  0.70827935  0.21389945  0.32625032     0.87300
C1518       C  0.79210959  0.28596473  0.32628214     0.87500
O1519       O  0.88130878  0.28091774  0.18937024    -0.74800
O1520       O  0.88087115  0.21963081  0.24988095    -0.74800
O1521       O  0.88138985  0.21984707  0.18904772    -0.74900
O1522       O  0.88083991  0.28046708  0.25016044    -0.75000
O1523       O  0.83384375  0.28388150  0.24130184    -0.74900
O1524       O  0.83435072  0.21649643  0.19743464    -0.74900
O1525       O  0.83380226  0.22816958  0.25298799    -0.74800
O1526       O  0.83436073  0.27215171  0.18563390    -0.74900
Ni1527     Ni  0.88361552  0.25021980  0.21961368     1.25400
Ni1528     Ni  0.83281450  0.25018320  0.21931124     1.25400
C1529       C  0.85645183  0.28647452  0.17771242     0.87400
C1530       C  0.85590267  0.21409754  0.26132528     0.87300
C1531       C  0.85653770  0.20815440  0.18352683     0.87300
C1532       C  0.85589567  0.29200548  0.25556407     0.87500
O1533       O  0.77206272  0.33409460  0.25292105    -0.74800
O1534       O  0.72793357  0.33481631  0.18583239    -0.74800
O1535       O  0.78352618  0.33477065  0.19739923    -0.74900
O1536       O  0.71644180  0.33409165  0.24149243    -0.75000
O1537       O  0.71979408  0.38108918  0.25047120    -0.74900
O1538       O  0.78014075  0.38182107  0.18903557    -0.74900
O1539       O  0.71911727  0.38176147  0.18963712    -0.74800
O1540       O  0.78055542  0.38120199  0.24996061    -0.74900
Ni1541     Ni  0.74998422  0.33318375  0.21937829     1.25400
Ni1542     Ni  0.74990303  0.38400175  0.21978429     1.25400
C1543       C  0.78606256  0.35619597  0.26135207     0.87400
C1544       C  0.71360752  0.35690911  0.17792877     0.87300
C1545       C  0.79176331  0.35694040  0.18341189     0.87300
C1546       C  0.70834514  0.35608514  0.25585449     0.87500
O1547       O  0.66655966  0.21637326  0.24150779    -0.74800
O1548       O  0.66600732  0.28329499  0.19712338    -0.74800
O1549       O  0.66659281  0.27208987  0.25270297    -0.74900
O1550       O  0.66598808  0.22761002  0.18579559    -0.75000
O1551       O  0.61896649  0.21913302  0.18939902    -0.74900
O1552       O  0.61946080  0.28039370  0.24984916    -0.74900
O1553       O  0.61890288  0.28014282  0.18901040    -0.74800
O1554       O  0.61950516  0.21963144  0.25015955    -0.74900
Ni1555     Ni  0.66755307  0.24983773  0.21925037     1.25400
Ni1556     Ni  0.61670983  0.24982611  0.21960267     1.25400
C1557       C  0.64446989  0.20819860  0.25566776     0.87400
C1558       C  0.64378023  0.29169384  0.18333534     0.87300
C1559       C  0.64445220  0.28598315  0.26119939     0.87300
C1560       C  0.64382307  0.21344496  0.17781879     0.87500
O1561       O  0.71946107  0.11864949  0.24975344    -0.74800
O1562       O  0.78097282  0.11815340  0.18949590    -0.74800
O1563       O  0.78030118  0.11878578  0.25030305    -0.74900
O1564       O  0.71995163  0.11804913  0.18881024    -0.75000
O1565       O  0.71648124  0.16506173  0.19731964    -0.74900
O1566       O  0.78374563  0.16576113  0.24125891    -0.74900
O1567       O  0.77204349  0.16507662  0.18559737    -0.74800
O1568       O  0.72810639  0.16571070  0.25282300    -0.74900
Ni1569     Ni  0.75016767  0.11586791  0.21959835     1.25400
Ni1570     Ni  0.75009805  0.16666535  0.21921680     1.25400
C1571       C  0.71401710  0.14364608  0.26120627     0.87400
C1572       C  0.78645015  0.14300941  0.17778389     0.87300
C1573       C  0.79184813  0.14376649  0.25563308     0.87300
C1574       C  0.70828340  0.14292297  0.18325333     0.87500
O1575       O  0.78071160  0.21948879  0.08905420    -0.74800
O1576       O  0.71956494  0.28038221  0.08898168    -0.74800
O1577       O  0.78045332  0.28051614  0.08904878    -0.74900
O1578       O  0.71973352  0.21933684  0.08889952    -0.75000
O1579       O  0.72656028  0.21736929  0.13626697    -0.74900
O1580       O  0.77356732  0.28239723  0.13642591    -0.74900
O1581       O  0.71754576  0.27345984  0.13633591    -0.74800
O1582       O  0.78257980  0.22633151  0.13642888    -0.74900
Ni1583     Ni  0.75012171  0.24992384  0.08658634     1.25400
Ni1584     Ni  0.75005921  0.24988484  0.13755113     1.25400
C1585       C  0.79157184  0.21310733  0.11408881     0.87400
C1586       C  0.70866874  0.28677076  0.11399445     0.87300
C1587       C  0.78672158  0.29143609  0.11406935     0.87300
C1588       C  0.71337934  0.20840335  0.11389561     0.87500
C1589       C  0.84884964  0.34904502  0.31824143     0.86100
C1590       C  0.86624240  0.33000810  0.29624991    -0.54100
C1591       C  0.84880607  0.31309847  0.27931614     0.09000
C1592       C  0.81669814  0.31687374  0.28669559     0.20000
C1593       C  0.82677464  0.36648654  0.29934637    -0.54900
C1594       C  0.80954899  0.34905158  0.28272699     0.09100
C1595       C  0.83002837  0.32712598  0.33603932    -0.54400
C1596       C  0.81311261  0.30982955  0.31892320     0.09700
H1597       H  0.88969340  0.33022891  0.29425026     0.14200
H1598       H  0.80293721  0.30306254  0.27315378     0.00000
H1599       H  0.82510287  0.38993316  0.29926431     0.14500
H1600       H  0.83039095  0.32545610  0.35951406     0.14300
C1601       C  0.90141027  0.40140234  0.36991700     0.86100
C1602       C  0.92358250  0.42020633  0.35249067    -0.54100
C1603       C  0.94069171  0.43696484  0.36992130     0.09000
C1604       C  0.93330394  0.43329210  0.40203646     0.20000
C1605       C  0.92013829  0.38380895  0.39202894    -0.54900
C1606       C  0.93693766  0.40109908  0.40924059     0.09100
C1607       C  0.88385803  0.42350263  0.38867630    -0.54400
C1608       C  0.90114540  0.44059790  0.40557241     0.09700
H1609       H  0.92550822  0.42001534  0.32903164     0.14200
H1610       H  0.94694616  0.44700090  0.41582532     0.00000
H1611       H  0.91991411  0.36036164  0.39379138     0.14500
H1612       H  0.86040018  0.42537811  0.38837099     0.14300
C1613       C  0.84892258  0.15120790  0.31829616     0.86100
C1614       C  0.82702961  0.17007425  0.33600841    -0.54100
C1615       C  0.80974595  0.18689210  0.31882403     0.09000
C1616       C  0.81671387  0.18318644  0.28658955     0.20000
C1617       C  0.82989817  0.13367599  0.29638726    -0.54900
C1618       C  0.81296303  0.15100864  0.27936040     0.09100
C1619       C  0.86630566  0.17328506  0.29930281    -0.54400
C1620       C  0.84884106  0.19044625  0.28261326     0.09700
H1621       H  0.82540033  0.16986443  0.35948446     0.14200
H1622       H  0.80289277  0.19687512  0.27297526     0.00000
H1623       H  0.83013222  0.11023796  0.29452623     0.14500
H1624       H  0.88977207  0.17507263  0.29928988     0.14300
C1625       C  0.90096978  0.09872325  0.37043462     0.86100
C1626       C  0.92293800  0.11622678  0.38940587    -0.54100
C1627       C  0.93996763  0.09886020  0.40630160     0.09000
C1628       C  0.93272890  0.06668943  0.40254125     0.20000
C1629       C  0.91989501  0.07664133  0.35300308    -0.54900
C1630       C  0.93660933  0.05946225  0.37040792     0.09100
C1631       C  0.88330041  0.07987502  0.39239040    -0.54400
C1632       C  0.90053262  0.06304492  0.40962948     0.09700
H1633       H  0.92478685  0.13966270  0.38922062     0.14200
H1634       H  0.94635168  0.05293259  0.41628847     0.00000
H1635       H  0.91986019  0.07487324  0.32953202     0.14500
H1636       H  0.85982494  0.08012570  0.39411089     0.14300
C1637       C  0.65129550  0.34856041  0.31838506     0.86100
C1638       C  0.67312503  0.32967183  0.33617573    -0.54100
C1639       C  0.69048448  0.31288585  0.31902606     0.09000
C1640       C  0.68359249  0.31663710  0.28678454     0.20000
C1641       C  0.67036604  0.36612698  0.29658119    -0.54900
C1642       C  0.68733421  0.34881676  0.27960409     0.09100
C1643       C  0.63395999  0.32654596  0.29931338    -0.54400
C1644       C  0.65147467  0.30943193  0.28266441     0.09700
H1645       H  0.67468406  0.32987924  0.35965738     0.14200
H1646       H  0.69745510  0.30296848  0.27320638     0.00000
H1647       H  0.67009095  0.38956401  0.29470129     0.14500
H1648       H  0.61048891  0.32481596  0.29915792     0.14300
C1649       C  0.59882182  0.40106972  0.36978231     0.86100
C1650       C  0.57705951  0.38337374  0.38879551    -0.54100
C1651       C  0.55979895  0.40058574  0.40556869     0.09000
C1652       C  0.56665211  0.43283938  0.40160651     0.20000
C1653       C  0.57968884  0.42286040  0.35216004    -0.54900
C1654       C  0.56277789  0.43996981  0.36945830     0.09100
C1655       C  0.61625282  0.42028007  0.39164092    -0.54400
C1656       C  0.59880438  0.43709006  0.40868665     0.09700
H1657       H  0.57553536  0.35991819  0.38874832     0.14200
H1658       H  0.55275997  0.44637457  0.41523016     0.00000
H1659       H  0.57991034  0.42464522  0.32869420     0.14500
H1660       H  0.63973039  0.42040092  0.39330960     0.14300
C1661       C  0.84887489  0.34931701  0.12062496     0.86100
C1662       C  0.82690767  0.33008328  0.10334748    -0.54100
C1663       C  0.80996421  0.31327114  0.12089315     0.09000
C1664       C  0.81718914  0.31756086  0.15296655     0.20000
C1665       C  0.82990882  0.36704150  0.14248960    -0.54900
C1666       C  0.81317834  0.34980217  0.15983937     0.09100
C1667       C  0.86656200  0.32752477  0.13971706    -0.54400
C1668       C  0.84934099  0.31043237  0.15672506     0.09700
H1669       H  0.82515267  0.32988862  0.07988011     0.14200
H1670       H  0.80365784  0.30396835  0.16685691     0.00000
H1671       H  0.82992309  0.39050267  0.14397146     0.14500
H1672       H  0.89002393  0.32570024  0.13936199     0.14300
C1673       C  0.90098826  0.40074354  0.06746660     0.86100
C1674       C  0.92286497  0.38303719  0.04849652    -0.54100
C1675       C  0.93997797  0.40028313  0.03151243     0.09000
C1676       C  0.93285365  0.43249331  0.03523550     0.20000
C1677       C  0.92006278  0.42277570  0.08479608    -0.54900
C1678       C  0.93684302  0.43979705  0.06731985     0.09100
C1679       C  0.88338938  0.41963496  0.04548512    -0.54400
C1680       C  0.90067999  0.43634143  0.02819223     0.09700
H1681       H  0.92462234  0.35959832  0.04879447     0.14200
H1682       H  0.94648450  0.44618238  0.02147961     0.00000
H1683       H  0.92002794  0.42466786  0.10825907     0.14500
H1684       H  0.85990786  0.41958630  0.04386934     0.14300
C1685       C  0.65125939  0.15108999  0.31820989     0.86100
C1686       C  0.63397076  0.17027185  0.29628799    -0.54100
C1687       C  0.65149866  0.18706368  0.27935532     0.09000
C1688       C  0.68359879  0.18307357  0.28666303     0.20000
C1689       C  0.67319114  0.13351524  0.29923207    -0.54900
C1690       C  0.69054193  0.15085856  0.28261872     0.09100
C1691       C  0.67025552  0.17285739  0.33600218    -0.54400
C1692       C  0.68725885  0.19006014  0.31888653     0.09700
H1693       H  0.61051711  0.17024024  0.29433323     0.14200
H1694       H  0.69743094  0.19682844  0.27313858     0.00000
H1695       H  0.67468611  0.11005352  0.29910743     0.14500
H1696       H  0.66989230  0.17454532  0.35947584     0.14300
C1697       C  0.59834129  0.09921670  0.37004455     0.86100
C1698       C  0.57923790  0.11693474  0.39177589    -0.54100
C1699       C  0.56239091  0.09969974  0.40900505     0.09000
C1700       C  0.56629149  0.06748055  0.40206712     0.20000
C1701       C  0.61582593  0.07740965  0.38928680    -0.54900
C1702       C  0.59845349  0.06039388  0.40621337     0.09100
C1703       C  0.57650845  0.08007277  0.35253721    -0.54400
C1704       C  0.55931323  0.06335738  0.36990828     0.09700
H1705       H  0.57940379  0.14038548  0.39340927     0.14200
H1706       H  0.55247908  0.05387548  0.41570323     0.00000
H1707       H  0.63930192  0.07571303  0.38929310     0.14500
H1708       H  0.57489360  0.07998781  0.32906296     0.14300
C1709       C  0.65078775  0.34912626  0.12087325     0.86100
C1710       C  0.63331839  0.32997013  0.14274362    -0.54100
C1711       C  0.65073699  0.31328570  0.15992954     0.09000
C1712       C  0.68288818  0.31751550  0.15295742     0.20000
C1713       C  0.67250766  0.36691518  0.13995612    -0.54900
C1714       C  0.68977708  0.34973653  0.15683202     0.09100
C1715       C  0.67009553  0.32727682  0.10344527    -0.54400
C1716       C  0.68706259  0.31031383  0.12086698     0.09700
H1717       H  0.60984139  0.32979816  0.14432915     0.14200
H1718       H  0.69659286  0.30400392  0.16674539     0.00000
H1719       H  0.67409390  0.39037060  0.13975877     0.14500
H1720       H  0.67008339  0.32549605  0.07997544     0.14300
C1721       C  0.59866240  0.40090485  0.06794448     0.86100
C1722       C  0.57657356  0.42003030  0.08515015    -0.54100
C1723       C  0.55963705  0.43677019  0.06754717     0.09000
C1724       C  0.56707191  0.43270960  0.03551706     0.20000
C1725       C  0.57980760  0.38323290  0.04593337    -0.54900
C1726       C  0.56314632  0.40050239  0.02853309     0.09100
C1727       C  0.61641523  0.42277702  0.04898455    -0.54400
C1728       C  0.59926388  0.43986393  0.03188319     0.09700
H1729       H  0.57458599  0.42006405  0.10859813     0.14200
H1730       H  0.55350899  0.44637075  0.02170477     0.00000
H1731       H  0.57981467  0.35977290  0.04442357     0.14500
H1732       H  0.63987593  0.42457572  0.04941221     0.14300
C1733       C  0.84937501  0.15073111  0.12097421     0.86100
C1734       C  0.86691873  0.16979223  0.14289935    -0.54100
C1735       C  0.84954557  0.18653937  0.16010473     0.09000
C1736       C  0.81738442  0.18241737  0.15309128     0.20000
C1737       C  0.82758243  0.13300296  0.13997911    -0.54900
C1738       C  0.81037879  0.15020570  0.15685869     0.09100
C1739       C  0.83018244  0.17267447  0.10356066    -0.54400
C1740       C  0.81325180  0.18965728  0.12099079     0.09700
H1741       H  0.89039105  0.16986792  0.14449315     0.14200
H1742       H  0.80371124  0.19593673  0.16691902     0.00000
H1743       H  0.82586416  0.10955880  0.13969454     0.14500
H1744       H  0.83017527  0.17444222  0.08009385     0.14300
C1745       C  0.90094062  0.09832366  0.06822042     0.86100
C1746       C  0.92285987  0.07925882  0.08566851    -0.54100
C1747       C  0.93994144  0.06249416  0.06825786     0.09000
C1748       C  0.93277357  0.06640991  0.03612877     0.20000
C1749       C  0.91994635  0.11590982  0.04631358    -0.54900
C1750       C  0.93671799  0.09859844  0.02909484     0.09100
C1751       C  0.88332510  0.07641025  0.04916935    -0.54400
C1752       C  0.90062462  0.05926679  0.03224929     0.09700
H1753       H  0.92470480  0.07935467  0.10913067     0.14200
H1754       H  0.94642901  0.05271743  0.02241125     0.00000
H1755       H  0.91992703  0.13936740  0.04470357     0.14500
H1756       H  0.85985689  0.07469019  0.04933284     0.14300
C1757       C  0.65093637  0.15072509  0.12067253     0.86100
C1758       C  0.66997898  0.13293270  0.14242125    -0.54100
C1759       C  0.68686622  0.15010639  0.15968365     0.09000
C1760       C  0.68291602  0.18234976  0.15283738     0.20000
C1761       C  0.63343316  0.17254301  0.13986349    -0.54900
C1762       C  0.65080181  0.18955255  0.15676907     0.09100
C1763       C  0.67287602  0.16991891  0.10326205    -0.54400
C1764       C  0.69001461  0.18664892  0.12073250     0.09700
H1765       H  0.66985497  0.10947800  0.14392915     0.14200
H1766       H  0.69653783  0.19587961  0.16669019     0.00000
H1767       H  0.60997527  0.17442744  0.13967415     0.14500
H1768       H  0.67448306  0.17012631  0.07978433     0.14300
C1769       C  0.59841091  0.09902148  0.06820274     0.86100
C1770       C  0.61609269  0.08001606  0.04636400    -0.54100
C1771       C  0.59887371  0.06319679  0.02910525     0.09000
C1772       C  0.56667188  0.06713058  0.03603058     0.20000
C1773       C  0.57657813  0.11662516  0.04909684    -0.54900
C1774       C  0.55952315  0.09930281  0.03215261     0.09100
C1775       C  0.57928558  0.07704446  0.08559431    -0.54400
C1776       C  0.56259323  0.05990794  0.06811977     0.09700
H1777       H  0.63958125  0.08007415  0.04482778     0.14200
H1778       H  0.55304548  0.05348195  0.02226798     0.00000
H1779       H  0.57480277  0.14006496  0.04928217     0.14500
H1780       H  0.57926910  0.07523741  0.10906206     0.14300
O1781       O  0.63096617  0.46931937  0.49926438    -0.74800
O1782       O  0.63057630  0.03062858  0.43861268    -0.74800
O1783       O  0.63089095  0.03043268  0.49955453    -0.74900
O1784       O  0.63081246  0.46964099  0.43834013    -0.75000
O1785       O  0.58345866  0.46760835  0.44537882    -0.74900
O1786       O  0.58354864  0.03242063  0.49261659    -0.74900
O1787       O  0.58322379  0.02356510  0.43669671    -0.74800
O1788       O  0.58362423  0.47630910  0.50137878    -0.74900
Ni1789     Ni  0.63332024  0.50001523  0.46893004     1.25400
Ni1790     Ni  0.58236272  0.49997313  0.46902389     1.25400
C1791       C  0.60644387  0.46369388  0.01073151     0.87400
C1792       C  0.60549936  0.03693436  0.42778931     0.87300
C1793       C  0.60608106  0.04179124  0.00558515     0.87300
C1794       C  0.60576957  0.45873551  0.43206124     0.87500
O1795       O  0.53342232  0.08482212  0.44717157    -0.74800
O1796       O  0.96617252  0.08412958  0.49125099    -0.74800
O1797       O  0.97783150  0.08402163  0.43571864    -0.74900
O1798       O  0.52184524  0.08494980  0.50276551    -0.75000
O1799       O  0.53038485  0.13195839  0.49927061    -0.74900
O1800       O  0.96892963  0.13103528  0.43903390    -0.74900
O1801       O  0.96919555  0.13118517  0.49985248    -0.74800
O1802       O  0.52969372  0.13178362  0.43832992    -0.74900
Ni1803     Ni  0.49986891  0.08340288  0.46920422     1.25400
Ni1804     Ni  0.49956345  0.13420414  0.46910950     1.25400
C1805       C  0.54134172  0.10689275  0.43283229     0.87400
C1806       C  0.95808571  0.10577551  0.00554958     0.87300
C1807       C  0.96358319  0.10605742  0.42751281     0.87300
C1808       C  0.53581862  0.10635950  0.01089026     0.87500
O1809       O  0.52981342  0.03039961  0.09984746    -0.74800
O1810       O  0.96959217  0.46899835  0.09927515    -0.74800
O1811       O  0.53026717  0.46956432  0.09923330    -0.74900
O1812       O  0.96911737  0.02971482  0.10013846    -0.75000
O1813       O  0.97798453  0.03351284  0.05320088    -0.74900
O1814       O  0.52208903  0.46637913  0.05211692    -0.75300
O1815       O  0.96640952  0.47752471  0.05221644    -0.74800
O1816       O  0.53333997  0.02205648  0.05280021    -0.74900
Ni1817     Ni  0.99977114  0.49965820  0.10198508     1.25400
Ni1818     Ni  0.99986728  0.49985064  0.05114931     1.25400
C1819       C  0.54140456  0.03611067  0.07500280     0.87400
C1820       C  0.95813201  0.46344598  0.07432935     0.87300
C1821       C  0.53598202  0.45809141  0.07434583     0.87300
C1822       C  0.96370053  0.04142698  0.07529446     0.87500
O1823       O  0.86851875  0.46923766  0.49924422    -0.74800
O1824       O  0.86837645  0.03005692  0.43831619    -0.74800
O1825       O  0.86889054  0.46924546  0.43843708    -0.74900
O1826       O  0.86795960  0.03029425  0.49911215    -0.75000
O1827       O  0.91475589  0.02096994  0.50332415    -0.74900
O1828       O  0.91574667  0.47873383  0.43483243    -0.74900
O1829       O  0.91514361  0.03412877  0.44797533    -0.74800
O1830       O  0.91541832  0.46563169  0.49012189    -0.74900
Ni1831     Ni  0.86597173  0.49966929  0.46880818     1.25400
Ni1832     Ni  0.91669310  0.49988307  0.46907729     1.25400
C1833       C  0.89347946  0.45761825  0.00460344     0.87400
C1834       C  0.89323268  0.04198634  0.43335831     0.87300
C1835       C  0.89383436  0.46424754  0.42670915     0.87300
C1836       C  0.89356386  0.03560942  0.01087326     0.87500
O1837       O  0.53046607  0.03026180  0.33790242    -0.74800
O1838       O  0.96954768  0.46993287  0.33800943    -0.74800
O1839       O  0.96960974  0.03066635  0.33834877    -0.74900
O1840       O  0.53005661  0.46938447  0.33752987    -0.75000
O1841       O  0.53380785  0.47817698  0.38447202    -0.74900
O1842       O  0.96608552  0.02156353  0.38527499    -0.74900
O1843       O  0.97887084  0.46595792  0.38485898    -0.74800
O1844       O  0.52163967  0.03370721  0.38486297    -0.74900
Ni1845     Ni  0.49985906  0.50010754  0.33519585     1.25400
Ni1846     Ni  0.50001903  0.49998241  0.38596325     1.25400
C1847       C  0.53580502  0.04193375  0.36279834     0.87400
C1848       C  0.96443629  0.45804643  0.36284136     0.87300
C1849       C  0.95790911  0.03586416  0.36326475     0.87300
C1850       C  0.54173859  0.46386526  0.36238174     0.87500
O1851       O  0.96977933  0.36884244  0.43801359    -0.74800
O1852       O  0.53020100  0.36772371  0.49932287    -0.74800
O1853       O  0.96937650  0.36815519  0.49878641    -0.74900
O1854       O  0.53082213  0.36822418  0.43831265    -0.75000
O1855       O  0.52211349  0.41525643  0.43521976    -0.74900
O1856       O  0.97841511  0.41505090  0.50285310    -0.74900
O1857       O  0.53373665  0.41472034  0.49073469    -0.74800
O1858       O  0.96622382  0.41576233  0.44729531    -0.74900
Ni1859     Ni  0.00004827  0.36594649  0.46856489     1.25400
Ni1860     Ni  0.00007565  0.41673206  0.46901181     1.25400
C1861       C  0.95810883  0.39380149  0.43287778     0.87400
C1862       C  0.54179104  0.39338409  0.00491244     0.87300
C1863       C  0.96372280  0.39314086  0.01033914     0.87300
C1864       C  0.53626896  0.39323479  0.42688091     0.87500
C1865       C  0.63226679  0.13243541  0.10205766    -0.13700
C1866       C  0.61690938  0.11745107  0.08684463    -0.15200
C1867       C  0.88264036  0.11690903  0.08691422    -0.13700
C1868       C  0.86779169  0.13223334  0.10229941    -0.15200
C1869       C  0.61699756  0.38249448  0.08682086    -0.13700
C1870       C  0.63215323  0.36746535  0.10222086    -0.15200
C1871       C  0.63242817  0.13262625  0.33645537    -0.13700
C1872       C  0.61697839  0.11758374  0.35150154    -0.15200
C1873       C  0.86730301  0.36762317  0.10178269    -0.13700
C1874       C  0.88248047  0.38247528  0.08626034    -0.15200
C1875       C  0.61740748  0.38254428  0.35143932    -0.13700
C1876       C  0.63263392  0.36715404  0.33657272    -0.15200
C1877       C  0.86751845  0.13262349  0.33667728    -0.13700
C1878       C  0.88260242  0.11732092  0.35184078    -0.15200
C1879       C  0.86753481  0.36768758  0.33644448    -0.13700
C1880       C  0.88286972  0.38292515  0.35140422    -0.15200
O1881       O  0.72866249  0.28407357  0.80420849    -0.74800
O1882       O  0.77144551  0.21601121  0.80384089    -0.74800
O1883       O  0.71599634  0.22858027  0.80407105    -0.74900
O1884       O  0.78407115  0.27146087  0.80393654    -0.75000
O1885       O  0.78032803  0.28072183  0.85079034    -0.74900
O1886       O  0.72007306  0.21914114  0.85086522    -0.74900
O1887       O  0.78088078  0.21982318  0.85067074    -0.74800
O1888       O  0.71940117  0.28006808  0.85103162    -0.74900
Ni1889     Ni  0.75003213  0.25004008  0.80272163     1.25400
Ni1890     Ni  0.75017817  0.24994335  0.85342374     1.25400
C1891       C  0.71416911  0.29191366  0.82619115     0.87400
C1892       C  0.78596644  0.20805082  0.82576562     0.87300
C1893       C  0.70823042  0.21395289  0.82600873     0.87300
C1894       C  0.79208062  0.28592173  0.82588796     0.87500
O1895       O  0.88138537  0.28097928  0.68914493    -0.74800
O1896       O  0.88091844  0.21968827  0.74962984    -0.74800
O1897       O  0.88144288  0.21990290  0.68881948    -0.74900
O1898       O  0.88091303  0.28050203  0.74989651    -0.75000
O1899       O  0.83398941  0.28414158  0.74073715    -0.74900
O1900       O  0.83447176  0.21636586  0.69751436    -0.74900
O1901       O  0.83391200  0.22850984  0.75295174    -0.74800
O1902       O  0.83451718  0.27190031  0.68517916    -0.74900
Ni1903     Ni  0.88370193  0.25027022  0.71936774     1.25400
Ni1904     Ni  0.83293269  0.25024102  0.71906574     1.25400
C1905       C  0.85654229  0.28639881  0.67739642     0.87400
C1906       C  0.85596801  0.21429758  0.76118409     0.87300
C1907       C  0.85660317  0.20810059  0.68348473     0.87300
C1908       C  0.85598930  0.29214917  0.75514186     0.87500
O1909       O  0.77179362  0.33405690  0.75299567    -0.74800
O1910       O  0.72791070  0.33469992  0.68573520    -0.74800
O1911       O  0.78348896  0.33470967  0.69749539    -0.74900
O1912       O  0.71620061  0.33404158  0.74136641    -0.75000
O1913       O  0.71963213  0.38102023  0.75041498    -0.74900
O1914       O  0.77999522  0.38173956  0.68903060    -0.74900
O1915       O  0.71897166  0.38162091  0.68961622    -0.74800
O1916       O  0.78040653  0.38113597  0.74989632    -0.74900
Ni1917     Ni  0.74984265  0.33310437  0.71936648     1.25400
Ni1918     Ni  0.74974764  0.38391397  0.71974687     1.25400
C1919       C  0.78588775  0.35614087  0.76131559     0.87400
C1920       C  0.71351430  0.35676865  0.67788869     0.87300
C1921       C  0.79170333  0.35688511  0.68348727     0.87300
C1922       C  0.70812117  0.35603801  0.75574755     0.87500
O1923       O  0.66655294  0.21648608  0.74165133    -0.74800
O1924       O  0.66573779  0.28316935  0.69704815    -0.74800
O1925       O  0.66636139  0.27221538  0.75261557    -0.74900
O1926       O  0.66591621  0.22747707  0.68593345    -0.75000
O1927       O  0.61887788  0.21902190  0.68938794    -0.74900
O1928       O  0.61917980  0.28023614  0.74993827    -0.74900
O1929       O  0.61861737  0.28005823  0.68906351    -0.74800
O1930       O  0.61944584  0.21940898  0.75013078    -0.74900
Ni1931     Ni  0.66738809  0.24983996  0.71927886     1.25400
Ni1932     Ni  0.61653050  0.24967766  0.71963263     1.25400
C1933       C  0.64446696  0.20810411  0.75567889     0.87400
C1934       C  0.64349389  0.29159046  0.68332663     0.87300
C1935       C  0.64418104  0.28598057  0.76119945     0.87300
C1936       C  0.64377662  0.21331495  0.67790195     0.87500
O1937       O  0.71962515  0.11848043  0.74974699    -0.74800
O1938       O  0.78106925  0.11809388  0.68942977    -0.74800
O1939       O  0.78046957  0.11871168  0.75020772    -0.74900
O1940       O  0.72007086  0.11790812  0.68881799    -0.75000
O1941       O  0.71635958  0.16485084  0.69762009    -0.74900
O1942       O  0.78401560  0.16562563  0.74088329    -0.74900
O1943       O  0.77181218  0.16494315  0.68535705    -0.74800
O1944       O  0.72847514  0.16548811  0.75301806    -0.74900
Ni1945     Ni  0.75030884  0.11573297  0.71955949     1.25400
Ni1946     Ni  0.75016751  0.16650162  0.71918879     1.25400
C1947       C  0.71426971  0.14345241  0.76129934     0.87400
C1948       C  0.78637179  0.14294553  0.67762871     0.87300
C1949       C  0.79207757  0.14369765  0.75536791     0.87300
C1950       C  0.70827805  0.14275745  0.68342527     0.87500
O1951       O  0.78059140  0.21956010  0.58929940    -0.74800
O1952       O  0.71952128  0.28040039  0.58917667    -0.74800
O1953       O  0.78037100  0.28053998  0.58920879    -0.74900
O1954       O  0.71968898  0.21940795  0.58922272    -0.75000
O1955       O  0.72690678  0.21714946  0.63653281    -0.74900
O1956       O  0.77313068  0.28283491  0.63652116    -0.74900
O1957       O  0.71719936  0.27315690  0.63647608    -0.74800
O1958       O  0.78288056  0.22681586  0.63660885    -0.74900
Ni1959     Ni  0.75004754  0.24996980  0.58681033     1.25400
Ni1960     Ni  0.75002958  0.24999034  0.63775223     1.25400
C1961       C  0.79164869  0.21338133  0.61428793     0.87400
C1962       C  0.70845722  0.28660033  0.61415172     0.87300
C1963       C  0.78646131  0.29166651  0.61417663     0.87300
C1964       C  0.71355483  0.20831277  0.61419819     0.87500
C1965       C  0.84883629  0.34891385  0.81797332     0.86100
C1966       C  0.86625793  0.33000911  0.79591334    -0.54100
C1967       C  0.84884583  0.31314332  0.77893265     0.09000
C1968       C  0.81673280  0.31680737  0.78633844     0.20000
C1969       C  0.82670993  0.36639009  0.79917742    -0.54900
C1970       C  0.80949713  0.34897878  0.78252459     0.09100
C1971       C  0.83008071  0.32691423  0.83571060    -0.54400
C1972       C  0.81317254  0.30967513  0.81854867     0.09700
H1973       H  0.88970866  0.33027651  0.79390525     0.14200
H1974       H  0.80301220  0.30300513  0.77273835     0.00000
H1975       H  0.82496142  0.38983140  0.79922050     0.14500
H1976       H  0.83042620  0.32519584  0.85918266     0.14300
C1977       C  0.90126770  0.40110806  0.86976871     0.86100
C1978       C  0.92322012  0.42011676  0.85229458    -0.54100
C1979       C  0.94031607  0.43689070  0.86970441     0.09000
C1980       C  0.93311790  0.43300741  0.90184359     0.20000
C1981       C  0.92022626  0.38349226  0.89167585    -0.54900
C1982       C  0.93702034  0.40079152  0.90888009     0.09100
C1983       C  0.88367482  0.42301814  0.88873891    -0.54400
C1984       C  0.90094866  0.44014632  0.90562071     0.09700
H1985       H  0.92502884  0.42002956  0.82882871     0.14200
H1986       H  0.94672229  0.44673896  0.91560838     0.00000
H1987       H  0.92014920  0.36003889  0.89331094     0.14500
H1988       H  0.86020615  0.42478090  0.88853340     0.14300
C1989       C  0.84891214  0.15139196  0.81812780     0.86100
C1990       C  0.82690853  0.17021767  0.83572741    -0.54100
C1991       C  0.80965981  0.18697586  0.81845534     0.09000
C1992       C  0.81675199  0.18326582  0.78625601     0.20000
C1993       C  0.83002700  0.13378802  0.79618167    -0.54900
C1994       C  0.81312723  0.15105643  0.77907431     0.09100
C1995       C  0.86631636  0.17349402  0.79917977    -0.54400
C1996       C  0.84887373  0.19060477  0.78241078     0.09700
H1997       H  0.82519112  0.17003898  0.85919626     0.14200
H1998       H  0.80294485  0.19692176  0.77257643     0.00000
H1999       H  0.83030232  0.11034838  0.79437007     0.14500
H2000       H  0.88977854  0.17535268  0.79927302     0.14300
C2001       C  0.90092268  0.09881816  0.87017950     0.86100
C2002       C  0.92279823  0.11628439  0.88929884    -0.54100
C2003       C  0.93989911  0.09886560  0.90606354     0.09000
C2004       C  0.93284089  0.06668809  0.90197460     0.20000
C2005       C  0.91994485  0.07695525  0.85254486    -0.54900
C2006       C  0.93674225  0.05969381  0.86979081     0.09100
C2007       C  0.88335185  0.07970493  0.89201476    -0.54400
C2008       C  0.90068996  0.06281517  0.90910772     0.09700
H2009       H  0.92447479  0.13973134  0.88936410     0.14200
H2010       H  0.94653861  0.05288545  0.91555549     0.00000
H2011       H  0.91984792  0.07533797  0.82906283     0.14500
H2012       H  0.85988402  0.07987300  0.89379778     0.14300
C2013       C  0.65116467  0.34860499  0.81839728     0.86100
C2014       C  0.67305615  0.32972533  0.83612192    -0.54100
C2015       C  0.69035373  0.31292647  0.81892502     0.09000
C2016       C  0.68334755  0.31665273  0.78671078     0.20000
C2017       C  0.67017685  0.36614343  0.79651097    -0.54900
C2018       C  0.68708809  0.34881013  0.77949468     0.09100
C2019       C  0.63375407  0.32657175  0.79938856    -0.54400
C2020       C  0.65121292  0.30944317  0.78267850     0.09700
H2021       H  0.67471146  0.32996296  0.85959693     0.14200
H2022       H  0.69718894  0.30299409  0.77311375     0.00000
H2023       H  0.66993264  0.38958219  0.79463361     0.14500
H2024       H  0.61028303  0.32485395  0.79930878     0.14300
C2025       C  0.59907000  0.40131155  0.87004967     0.86100
C2026       C  0.57715718  0.38375381  0.88903343    -0.54100
C2027       C  0.56000655  0.40107902  0.90582290     0.09000
C2028       C  0.56711847  0.43326512  0.90193254     0.20000
C2029       C  0.58006966  0.42322577  0.85245409    -0.54900
C2030       C  0.56322323  0.44038166  0.86976184     0.09100
C2031       C  0.61662436  0.42035846  0.89195551    -0.54400
C2032       C  0.59928247  0.43720908  0.90907078     0.09700
H2033       H  0.57542751  0.36031195  0.88892219     0.14200
H2034       H  0.55340392  0.44691833  0.91562813     0.00000
H2035       H  0.58017381  0.42491333  0.82898189     0.14500
H2036       H  0.64009320  0.42024093  0.89370185     0.14300
C2037       C  0.84871516  0.34942280  0.62058910     0.86100
C2038       C  0.82667109  0.33023616  0.60336339    -0.54100
C2039       C  0.80978908  0.31340294  0.62094966     0.09000
C2040       C  0.81716319  0.31758374  0.65299282     0.20000
C2041       C  0.82982551  0.36709362  0.64256765    -0.54900
C2042       C  0.81316046  0.34980262  0.65994117     0.09100
C2043       C  0.86648027  0.32759154  0.63954679    -0.54400
C2044       C  0.84933519  0.31044914  0.65656821     0.09700
H2045       H  0.82479560  0.33011329  0.57990353     0.14200
H2046       H  0.80370054  0.30393739  0.66691063     0.00000
H2047       H  0.82979943  0.39055163  0.64406760     0.14500
H2048       H  0.88994047  0.32575561  0.63907239     0.14300
C2049       C  0.90089069  0.40067388  0.56732853     0.86100
C2050       C  0.92284492  0.38291337  0.54849252    -0.54100
C2051       C  0.94000172  0.40012162  0.53150720     0.09000
C2052       C  0.93278874  0.43231832  0.53502128     0.20000
C2053       C  0.91991662  0.42279074  0.58460234    -0.54900
C2054       C  0.93673314  0.43973639  0.56708191     0.09100
C2055       C  0.88331719  0.41945697  0.54524648    -0.54400
C2056       C  0.90061538  0.43611320  0.52792449     0.09700
H2057       H  0.92468641  0.35948568  0.54894898     0.14200
H2058       H  0.94641345  0.44593956  0.52118446     0.00000
H2059       H  0.91986920  0.42475152  0.60805928     0.14500
H2060       H  0.85983740  0.41942246  0.54362883     0.14300
C2061       C  0.65139767  0.15099675  0.81821353     0.86100
C2062       C  0.63407640  0.17007090  0.79622476    -0.54100
C2063       C  0.65156641  0.18685109  0.77924320     0.09000
C2064       C  0.68368658  0.18290732  0.78652935     0.20000
C2065       C  0.67337327  0.13338332  0.79930618    -0.54900
C2066       C  0.69070498  0.15069153  0.78262564     0.09100
C2067       C  0.67034909  0.17286945  0.83590888    -0.54400
C2068       C  0.68731375  0.19002863  0.81872057     0.09700
H2069       H  0.61061680  0.17005247  0.79433069     0.14200
H2070       H  0.69751862  0.19661322  0.77295029     0.00000
H2071       H  0.67493409  0.10992584  0.79930381     0.14500
H2072       H  0.66996940  0.17467342  0.85937554     0.14300
C2073       C  0.59850869  0.09921464  0.87021564     0.86100
C2074       C  0.57934947  0.11676603  0.89204415    -0.54100
C2075       C  0.56254882  0.09938301  0.90919441     0.09000
C2076       C  0.56659299  0.06720588  0.90212574     0.20000
C2077       C  0.61607490  0.07738451  0.88933994    -0.54900
C2078       C  0.59878030  0.06021287  0.90617393     0.09100
C2079       C  0.57670240  0.08009835  0.85264391    -0.54400
C2080       C  0.55956056  0.06326005  0.86995245     0.09700
H2081       H  0.57938109  0.14021142  0.89373510     0.14200
H2082       H  0.55290556  0.05345156  0.91575191     0.00000
H2083       H  0.63955698  0.07575659  0.88931146     0.14500
H2084       H  0.57502063  0.08016995  0.82917446     0.14300
C2085       C  0.65071843  0.34901155  0.62088309     0.86100
C2086       C  0.63314924  0.32991461  0.64272674    -0.54100
C2087       C  0.65049896  0.31320285  0.65995401     0.09000
C2088       C  0.68268591  0.31738095  0.65304436     0.20000
C2089       C  0.67243152  0.36678102  0.63996640    -0.54900
C2090       C  0.68963837  0.34958893  0.65687095     0.09100
C2091       C  0.67000001  0.32712017  0.60350631    -0.54400
C2092       C  0.68688095  0.31014142  0.62098022     0.09700
H2093       H  0.60966919  0.32978282  0.64424573     0.14200
H2094       H  0.69639678  0.30389063  0.66684945     0.00000
H2095       H  0.67409354  0.39023019  0.63971699     0.14500
H2096       H  0.67004294  0.32532849  0.58003647     0.14300
C2097       C  0.59865284  0.40062459  0.56793154     0.86100
C2098       C  0.57673334  0.41987147  0.58521027    -0.54100
C2099       C  0.55965735  0.43650661  0.56766230     0.09000
C2100       C  0.56677432  0.43214221  0.53556983     0.20000
C2101       C  0.57966481  0.38276440  0.54619008    -0.54900
C2102       C  0.56288472  0.39988285  0.52877345     0.09100
C2103       C  0.61624393  0.42236083  0.54866988    -0.54400
C2104       C  0.59893545  0.43928190  0.53156456     0.09700
H2105       H  0.57503526  0.42014114  0.60867873     0.14200
H2106       H  0.55303090  0.44563811  0.52179769     0.00000
H2107       H  0.57981790  0.35930124  0.54473518     0.14500
H2108       H  0.63970780  0.42416097  0.54886965     0.14300
C2109       C  0.84926110  0.15085950  0.62087025     0.86100
C2110       C  0.86686038  0.16981778  0.64281793    -0.54100
C2111       C  0.84953008  0.18651002  0.66010633     0.09000
C2112       C  0.81734288  0.18245489  0.65315330     0.20000
C2113       C  0.82748482  0.13307982  0.63982394    -0.54900
C2114       C  0.81031450  0.15023024  0.65677594     0.09100
C2115       C  0.83007676  0.17288933  0.60357128    -0.54400
C2116       C  0.81321583  0.18983636  0.62110206     0.09700
H2117       H  0.89033973  0.16989776  0.64434288     0.14200
H2118       H  0.80366193  0.19593306  0.66703610     0.00000
H2119       H  0.82573053  0.10963856  0.63943429     0.14500
H2120       H  0.83005066  0.17476866  0.58011187     0.14300
C2121       C  0.90060612  0.09852976  0.56792500     0.86100
C2122       C  0.92264184  0.07935548  0.58513203    -0.54100
C2123       C  0.93954768  0.06259873  0.56751253     0.09000
C2124       C  0.93213611  0.06669418  0.53547540     0.20000
C2125       C  0.91947684  0.11617843  0.54596942    -0.54900
C2126       C  0.93612087  0.09892485  0.52858914     0.09100
C2127       C  0.88280610  0.07669058  0.54898597    -0.54400
C2128       C  0.89995277  0.05954048  0.53194370     0.09700
H2129       H  0.92463146  0.07931776  0.60858463     0.14200
H2130       H  0.94562412  0.05305421  0.52153975     0.00000
H2131       H  0.91957463  0.13964666  0.54454521     0.14500
H2132       H  0.85934999  0.07487318  0.54946603     0.14300
C2133       C  0.65113388  0.15064808  0.62074767     0.86100
C2134       C  0.67010625  0.13283280  0.64251922    -0.54100
C2135       C  0.68691508  0.14999052  0.65985957     0.09000
C2136       C  0.68299052  0.18225065  0.65306044     0.20000
C2137       C  0.63354688  0.17242373  0.63990537    -0.54900
C2138       C  0.65084643  0.18942454  0.65688909     0.09100
C2139       C  0.67311235  0.16987437  0.60344431    -0.54400
C2140       C  0.69018624  0.18657584  0.62099425     0.09700
H2141       H  0.67000874  0.10937322  0.64397627     0.14200
H2142       H  0.69659871  0.19578797  0.66693687     0.00000
H2143       H  0.61008845  0.17429974  0.63962598     0.14500
H2144       H  0.67480511  0.17011428  0.57997106     0.14300
C2145       C  0.59865469  0.09915406  0.56809124     0.86100
C2146       C  0.61621441  0.07996319  0.54629657    -0.54100
C2147       C  0.59887409  0.06325144  0.52904662     0.09000
C2148       C  0.56668902  0.06761105  0.53586602     0.20000
C2149       C  0.57702336  0.11698747  0.54895966    -0.54900
C2150       C  0.55982266  0.09984900  0.53199082     0.09100
C2151       C  0.57928668  0.07733017  0.58544301    -0.54400
C2152       C  0.56244692  0.06037113  0.56792173     0.09700
H2153       H  0.63970709  0.07970704  0.54489894     0.14200
H2154       H  0.55294827  0.05417681  0.52205876     0.00000
H2155       H  0.57542774  0.14043726  0.54920905     0.14500
H2156       H  0.57925406  0.07547030  0.60890579     0.14300
O2157       O  0.63137562  0.46949663  0.99931945    -0.74800
O2158       O  0.63094978  0.03095392  0.93892470    -0.74800
O2159       O  0.63107280  0.03048671  0.99986280    -0.74900
O2160       O  0.63126775  0.47001777  0.93839558    -0.75000
O2161       O  0.58420833  0.46670996  0.94677105    -0.74900
O2162       O  0.58395660  0.03331315  0.99169154    -0.74900
O2163       O  0.58384726  0.02267467  0.93598072    -0.74800
O2164       O  0.58429939  0.47771750  0.00249029    -0.74900
Ni2165     Ni  0.63369832  0.50027416  0.96907569     1.25400
Ni2166     Ni  0.58287961  0.50007177  0.96913160     1.25400
C2167       C  0.60593983  0.46290766  0.51013323     0.87400
C2168       C  0.60595842  0.03664748  0.92757593     0.87300
C2169       C  0.60587671  0.04139993  0.50582703     0.87300
C2170       C  0.60635576  0.45850005  0.93273836     0.87500
O2171       O  0.53321438  0.08423836  0.94701239    -0.74800
O2172       O  0.96655152  0.08365483  0.99160329    -0.74800
O2173       O  0.97731178  0.08380036  0.93586777    -0.74900
O2174       O  0.52180794  0.08418074  0.00266741    -0.75000
O2175       O  0.53012285  0.13126845  0.99938682    -0.74900
O2176       O  0.96891902  0.13090733  0.93897575    -0.74900
O2177       O  0.96936992  0.13079439  0.99987140    -0.74800
O2178       O  0.52962891  0.13127254  0.93847671    -0.74900
Ni2179     Ni  0.49970502  0.08275077  0.96914764     1.25400
Ni2180     Ni  0.49941638  0.13358731  0.96917510     1.25400
C2181       C  0.54127730  0.10640374  0.93288796     0.87400
C2182       C  0.95768842  0.10619774  0.50525248     0.87300
C2183       C  0.96334545  0.10594859  0.92752055     0.87300
C2184       C  0.53602718  0.10706269  0.51084155     0.87500
O2185       O  0.52989192  0.03042267  0.59955182    -0.74800
O2186       O  0.96940754  0.46900126  0.59902164    -0.74800
O2187       O  0.53035167  0.46938270  0.59950113    -0.74900
O2188       O  0.96903215  0.02993949  0.59919652    -0.75000
O2189       O  0.97701640  0.03300925  0.55203132    -0.74900
O2190       O  0.52262112  0.46670574  0.55229251    -0.75300
O2191       O  0.96657451  0.47718634  0.55187461    -0.74800
O2192       O  0.53275519  0.02297141  0.55231433    -0.74900
Ni2193     Ni  0.99963249  0.49959427  0.60176034     1.25400
Ni2194     Ni  0.99982912  0.49979384  0.55088438     1.25400
C2195       C  0.54112292  0.03661562  0.57465998     0.87400
C2196       C  0.95810681  0.46330669  0.57403955     0.87300
C2197       C  0.53624924  0.45811567  0.57454598     0.87300
C2198       C  0.96319546  0.04130561  0.57429161     0.87500
O2199       O  0.86856091  0.46927427  0.99932303    -0.74800
O2200       O  0.86874959  0.02993414  0.93823931    -0.74800
O2201       O  0.86875050  0.46901612  0.93848463    -0.74900
O2202       O  0.86870145  0.03015349  0.99916195    -0.75000
O2203       O  0.91568313  0.02147340  0.00268437    -0.74900
O2204       O  0.91564960  0.47823228  0.93492012    -0.74900
O2205       O  0.91569213  0.03364081  0.94712708    -0.74800
O2206       O  0.91550662  0.46582551  0.99036637    -0.74900
Ni2207     Ni  0.86594895  0.49958863  0.96878431     1.25400
Ni2208     Ni  0.91669504  0.49980082  0.96888830     1.25400
C2209       C  0.89340484  0.45744459  0.50438931     0.87400
C2210       C  0.89361122  0.04165398  0.93285002     0.87300
C2211       C  0.89368631  0.46382355  0.92680799     0.87300
C2212       C  0.89275037  0.03553762  0.51105106     0.87500
O2213       O  0.53049327  0.03048617  0.83781414    -0.74800
O2214       O  0.96930970  0.46976986  0.83775861    -0.74800
O2215       O  0.96963975  0.03072096  0.83761817    -0.74900
O2216       O  0.53033608  0.46956240  0.83773897    -0.75000
O2217       O  0.53356042  0.47796628  0.88478995    -0.74900
O2218       O  0.96612248  0.02167131  0.88453299    -0.74900
O2219       O  0.97822507  0.46612284  0.88470440    -0.74800
O2220       O  0.52181286  0.03368507  0.88482472    -0.74900
Ni2221     Ni  0.49992352  0.50009263  0.83534410     1.25400
Ni2222     Ni  0.49994188  0.49992788  0.88615979     1.25400
C2223       C  0.53595342  0.04197518  0.86276998     0.87400
C2224       C  0.96397738  0.45806891  0.86263158     0.87300
C2225       C  0.95798819  0.03601921  0.86254406     0.87300
C2226       C  0.54186626  0.46397411  0.86265312     0.87500
O2227       O  0.96982571  0.36859001  0.93792359    -0.74800
O2228       O  0.53027960  0.36846711  0.99923886    -0.74800
O2229       O  0.96935842  0.36823334  0.99879569    -0.74900
O2230       O  0.53070868  0.36887218  0.93834660    -0.75000
O2231       O  0.52225730  0.41597147  0.93533894    -0.74900
O2232       O  0.97782988  0.41528583  0.00221305    -0.74900
O2233       O  0.53349170  0.41555466  0.99094744    -0.74800
O2234       O  0.96662973  0.41564605  0.94654383    -0.74900
Ni2235     Ni  0.00006954  0.36590030  0.96858009     1.25400
Ni2236     Ni  0.00004814  0.41673960  0.96879432     1.25400
C2237       C  0.95834673  0.39356823  0.93243167     0.87400
C2238       C  0.54178313  0.39262403  0.50495080     0.87300
C2239       C  0.96397872  0.39297129  0.51061487     0.87300
C2240       C  0.53633039  0.39387992  0.92701094     0.87500
C2241       C  0.63256568  0.13237637  0.60204368    -0.13700
C2242       C  0.61724321  0.11742835  0.58677465    -0.15200
C2243       C  0.88244571  0.11707855  0.58675375    -0.13700
C2244       C  0.86762948  0.13240751  0.60214368    -0.15200
C2245       C  0.61709893  0.38236269  0.58676658    -0.13700
C2246       C  0.63221116  0.36735904  0.60219007    -0.15200
C2247       C  0.63257820  0.13261623  0.83657050    -0.13700
C2248       C  0.61711342  0.11765810  0.85169560    -0.15200
C2249       C  0.86710442  0.36772801  0.60170972    -0.13700
C2250       C  0.88233624  0.38249330  0.58615916    -0.15200
C2251       C  0.61751717  0.38267860  0.85164839    -0.13700
C2252       C  0.63260486  0.36723803  0.83667710    -0.15200
C2253       C  0.86744890  0.13284599  0.83658953    -0.13700
C2254       C  0.88249201  0.11749147  0.85173326    -0.15200
C2255       C  0.86747450  0.36748153  0.83622815    -0.13700
C2256       C  0.88276874  0.38265832  0.85125159    -0.15200
O2257       O  0.72869409  0.78393045  0.30425700    -0.74800
O2258       O  0.77161457  0.71598503  0.30409542    -0.74800
O2259       O  0.71617360  0.72843426  0.30416533    -0.74900
O2260       O  0.78413412  0.77148514  0.30414644    -0.75000
O2261       O  0.78027438  0.78074616  0.35098693    -0.74900
O2262       O  0.72007181  0.71906725  0.35098278    -0.74900
O2263       O  0.78092442  0.71976823  0.35093932    -0.74800
O2264       O  0.71940042  0.78000022  0.35108568    -0.74900
Ni2265     Ni  0.75015307  0.74996004  0.30288035     1.25400
Ni2266     Ni  0.75017865  0.74989301  0.35358197     1.25400
C2267       C  0.71421187  0.79182538  0.32622491     0.87400
C2268       C  0.78606175  0.70798293  0.32604795     0.87300
C2269       C  0.70828013  0.71387593  0.32609830     0.87300
C2270       C  0.79201575  0.78602587  0.32609447     0.87500
O2271       O  0.88128956  0.78089113  0.18945318    -0.74800
O2272       O  0.88086580  0.71954414  0.24992407    -0.74800
O2273       O  0.88141199  0.71979022  0.18909383    -0.74900
O2274       O  0.88076403  0.78042982  0.25020697    -0.75000
O2275       O  0.83374332  0.78369786  0.24142518    -0.74900
O2276       O  0.83435002  0.71650927  0.19735383    -0.74900
O2277       O  0.83377066  0.72795408  0.25291990    -0.74800
O2278       O  0.83432068  0.77221518  0.18574248    -0.74900
Ni2279     Ni  0.88359127  0.75016627  0.21967186     1.25400
Ni2280     Ni  0.83277993  0.75009767  0.21933116     1.25400
C2281       C  0.85642885  0.78652964  0.17784251     0.87400
C2282       C  0.85588250  0.71392245  0.26129412     0.87300
C2283       C  0.85655745  0.70812579  0.18351728     0.87300
C2284       C  0.85579882  0.79193296  0.25560469     0.87500
O2285       O  0.77179938  0.83432001  0.25297223    -0.74800
O2286       O  0.72798102  0.83504614  0.18568251    -0.74800
O2287       O  0.78352520  0.83500995  0.19749679    -0.74900
O2288       O  0.71621937  0.83429978  0.24130497    -0.75000
O2289       O  0.71971017  0.88124719  0.25047410    -0.74900
O2290       O  0.78001046  0.88201166  0.18895153    -0.74900
O2291       O  0.71896109  0.88193785  0.18964046    -0.74800
O2292       O  0.78047958  0.88138248  0.24986762    -0.74900
Ni2293     Ni  0.74987319  0.83340259  0.21932934     1.25400
Ni2294     Ni  0.74978759  0.88419342  0.21974019     1.25400
C2295       C  0.78591131  0.85638404  0.26131123     0.87400
C2296       C  0.71353887  0.85709512  0.17787348     0.87300
C2297       C  0.79172098  0.85714533  0.18342724     0.87300
C2298       C  0.70819897  0.85625081  0.25577801     0.87500
O2299       O  0.66640776  0.71638680  0.24140513    -0.74800
O2300       O  0.66586855  0.78339550  0.19718313    -0.74800
O2301       O  0.66649233  0.77208923  0.25273663    -0.74900
O2302       O  0.66578673  0.72773310  0.18571785    -0.75000
O2303       O  0.61879039  0.71918439  0.18942628    -0.74900
O2304       O  0.61937695  0.78048489  0.24985341    -0.74900
O2305       O  0.61877849  0.78021751  0.18901168    -0.74800
O2306       O  0.61938087  0.71972137  0.25017371    -0.74900
Ni2307     Ni  0.66740696  0.74989548  0.21922726     1.25400
Ni2308     Ni  0.61657542  0.74990745  0.21961506     1.25400
C2309       C  0.64433995  0.70824417  0.25561341     0.87400
C2310       C  0.64365769  0.79178466  0.18337030     0.87300
C2311       C  0.64437342  0.78603247  0.26121659     0.87300
C2312       C  0.64363363  0.71350682  0.17780956     0.87500
O2313       O  0.71935696  0.61861171  0.24971128    -0.74800
O2314       O  0.78091586  0.61799196  0.18949249    -0.74800
O2315       O  0.78019852  0.61861579  0.25029715    -0.74900
O2316       O  0.71985448  0.61800440  0.18878584    -0.75000
O2317       O  0.71652159  0.66503718  0.19723332    -0.74900
O2318       O  0.78368798  0.66558727  0.24127080    -0.74900
O2319       O  0.77208053  0.66492972  0.18562133    -0.74800
O2320       O  0.72803633  0.66567139  0.25274536    -0.74900
Ni2321     Ni  0.75007325  0.61576367  0.21957585     1.25400
Ni2322     Ni  0.75008974  0.66656417  0.21918596     1.25400
C2323       C  0.71391893  0.64362651  0.26112750     0.87400
C2324       C  0.78646516  0.64285073  0.17781692     0.87300
C2325       C  0.79176529  0.64358364  0.25563891     0.87300
C2326       C  0.70823492  0.64290124  0.18321912     0.87500
O2327       O  0.78073373  0.71949613  0.08918653    -0.74800
O2328       O  0.71956262  0.78036950  0.08916832    -0.74800
O2329       O  0.78045760  0.78054254  0.08921513    -0.74900
O2330       O  0.71975217  0.71933628  0.08906430    -0.75000
O2331       O  0.72632111  0.71755058  0.13647765    -0.74900
O2332       O  0.77385108  0.78219169  0.13663993    -0.74900
O2333       O  0.71776209  0.77371954  0.13657465    -0.74800
O2334       O  0.78241333  0.72606733  0.13660505    -0.74900
Ni2335     Ni  0.75013468  0.74993025  0.08676468     1.25400
Ni2336     Ni  0.75008509  0.74987592  0.13775368     1.25400
C2337       C  0.79149372  0.71297025  0.11422604     0.87400
C2338       C  0.70876545  0.78688301  0.11419176     0.87300
C2339       C  0.78685468  0.79135880  0.11424932     0.87300
C2340       C  0.71325891  0.70850278  0.11406792     0.87500
C2341       C  0.84872252  0.84911481  0.31813098     0.86100
C2342       C  0.86612089  0.83006269  0.29616276    -0.54100
C2343       C  0.84868723  0.81316238  0.27922263     0.09000
C2344       C  0.81656697  0.81700093  0.28654333     0.20000
C2345       C  0.82668728  0.86659437  0.29923452    -0.54900
C2346       C  0.80944966  0.84919174  0.28260548     0.09100
C2347       C  0.82987013  0.82720652  0.33590200    -0.54400
C2348       C  0.81296222  0.80993288  0.31876041     0.09700
H2349       H  0.88957911  0.83021831  0.29422667     0.14200
H2350       H  0.80278643  0.80323489  0.27297435     0.00000
H2351       H  0.82502012  0.89004189  0.29918976     0.14500
H2352       H  0.83022978  0.82550450  0.35937575     0.14300
C2353       C  0.90123041  0.90140251  0.36986379     0.86100
C2354       C  0.92337885  0.92024848  0.35245033    -0.54100
C2355       C  0.94046789  0.93700702  0.36989962     0.09000
C2356       C  0.93307281  0.93328835  0.40201122     0.20000
C2357       C  0.91998970  0.88379777  0.39194497    -0.54900
C2358       C  0.93678304  0.90108486  0.40916663     0.09100
C2359       C  0.88364609  0.92345927  0.38864899    -0.54400
C2360       C  0.90090823  0.94056033  0.40556294     0.09700
H2361       H  0.92531786  0.92006669  0.32899452     0.14200
H2362       H  0.94666890  0.94700866  0.41582094     0.00000
H2363       H  0.91981625  0.86034763  0.39365416     0.14500
H2364       H  0.86018703  0.92531323  0.38833356     0.14300
C2365       C  0.84881169  0.65105794  0.31831423     0.86100
C2366       C  0.82692655  0.66998274  0.33597533    -0.54100
C2367       C  0.80968670  0.68679837  0.31874428     0.09000
C2368       C  0.81667427  0.68301302  0.28652904     0.20000
C2369       C  0.82978500  0.63350245  0.29642789    -0.54900
C2370       C  0.81288571  0.65082433  0.27935884     0.09100
C2371       C  0.86623899  0.67308670  0.29929619    -0.54400
C2372       C  0.84880845  0.69024408  0.28256390     0.09700
H2373       H  0.82528345  0.66982642  0.35944994     0.14200
H2374       H  0.80287774  0.69669013  0.27288894     0.00000
H2375       H  0.82998629  0.61006090  0.29461694     0.14500
H2376       H  0.88970672  0.67486179  0.29931988     0.14300
C2377       C  0.90092217  0.59866673  0.37044963     0.86100
C2378       C  0.92292646  0.61619929  0.38935868    -0.54100
C2379       C  0.94001674  0.59885255  0.40621796     0.09000
C2380       C  0.93279653  0.56667407  0.40247596     0.20000
C2381       C  0.91981156  0.57659239  0.35297351    -0.54900
C2382       C  0.93658288  0.55943370  0.37033927     0.09100
C2383       C  0.88332936  0.57981837  0.39245632    -0.54400
C2384       C  0.90062682  0.56301692  0.40965078     0.09700
H2385       H  0.92473731  0.63963908  0.38917574     0.14200
H2386       H  0.94646494  0.55291820  0.41617934     0.00000
H2387       H  0.91969861  0.57480069  0.32950466     0.14500
H2388       H  0.85985931  0.58004587  0.39424222     0.14300
C2389       C  0.65128944  0.84857574  0.31844889     0.86100
C2390       C  0.67316332  0.82966960  0.33615616    -0.54100
C2391       C  0.69048933  0.81292120  0.31893870     0.09000
C2392       C  0.68354276  0.81673066  0.28671207     0.20000
C2393       C  0.67030498  0.86619325  0.29663187    -0.54900
C2394       C  0.68724510  0.84892679  0.27957607     0.09100
C2395       C  0.63393178  0.82657474  0.29937665    -0.54400
C2396       C  0.65142355  0.80950023  0.28265754     0.09700
H2397       H  0.67475503  0.82981463  0.35963386     0.14200
H2398       H  0.69738862  0.80310158  0.27307157     0.00000
H2399       H  0.67000901  0.88963399  0.29479676     0.14500
H2400       H  0.61046299  0.82480892  0.29928902     0.14300
C2401       C  0.59877058  0.90094902  0.36997498     0.86100
C2402       C  0.57698254  0.88321353  0.38892064    -0.54100
C2403       C  0.55966600  0.90039013  0.40567250     0.09000
C2404       C  0.56650101  0.93266047  0.40177304     0.20000
C2405       C  0.57966203  0.92274804  0.35234009    -0.54900
C2406       C  0.56270954  0.93983129  0.36962345     0.09100
C2407       C  0.61613168  0.92015658  0.39188912    -0.54400
C2408       C  0.59863020  0.93693805  0.40891123     0.09700
H2409       H  0.57547882  0.85975662  0.38884242     0.14200
H2410       H  0.55257605  0.94617527  0.41539421     0.00000
H2411       H  0.57995353  0.92458037  0.32887858     0.14500
H2412       H  0.63960711  0.92032287  0.39358806     0.14300
C2413       C  0.84893340  0.84935090  0.12069540     0.86100
C2414       C  0.82698365  0.83005766  0.10345857    -0.54100
C2415       C  0.81002717  0.81328799  0.12103719     0.09000
C2416       C  0.81720872  0.81769207  0.15310826     0.20000
C2417       C  0.82993527  0.86714119  0.14249329    -0.54900
C2418       C  0.81318020  0.84995570  0.15988373     0.09100
C2419       C  0.86659401  0.82760197  0.13986991    -0.54400
C2420       C  0.84935185  0.81055034  0.15690376     0.09700
H2421       H  0.82527511  0.82976754  0.07998907     0.14200
H2422       H  0.80366865  0.80415050  0.16703776     0.00000
H2423       H  0.82994731  0.89060435  0.14390094     0.14500
H2424       H  0.89005177  0.82573858  0.13950956     0.14300
C2425       C  0.90116708  0.90071037  0.06750159     0.86100
C2426       C  0.92310485  0.88306119  0.04854956    -0.54100
C2427       C  0.94025635  0.90035211  0.03164333     0.09000
C2428       C  0.93315491  0.93255905  0.03545739     0.20000
C2429       C  0.92016260  0.92270657  0.08494935    -0.54900
C2430       C  0.93698268  0.93979141  0.06758451     0.09100
C2431       C  0.88365442  0.91964980  0.04548246    -0.54400
C2432       C  0.90101206  0.93640146  0.02828400     0.09700
H2433       H  0.92480707  0.85961763  0.04872812     0.14200
H2434       H  0.94685982  0.94629191  0.02180420     0.00000
H2435       H  0.92000621  0.92457080  0.10841356     0.14500
H2436       H  0.86017999  0.91957400  0.04375235     0.14300
C2437       C  0.65119871  0.65114911  0.31813109     0.86100
C2438       C  0.63388486  0.67032970  0.29623585    -0.54100
C2439       C  0.65139763  0.68710346  0.27927751     0.09000
C2440       C  0.68350863  0.68309478  0.28653542     0.20000
C2441       C  0.67309141  0.63355105  0.29913933    -0.54900
C2442       C  0.69043124  0.65087464  0.28250388     0.09100
C2443       C  0.67022383  0.67290193  0.33589808    -0.54400
C2444       C  0.68721714  0.69008117  0.31875664     0.09700
H2445       H  0.61042783  0.67031475  0.29431897     0.14200
H2446       H  0.69732790  0.69683063  0.27297685     0.00000
H2447       H  0.67458578  0.61008888  0.29903810     0.14500
H2448       H  0.66989775  0.67458846  0.35937116     0.14300
C2449       C  0.59842480  0.59922590  0.36995404     0.86100
C2450       C  0.57924183  0.61687599  0.39167273    -0.54100
C2451       C  0.56241326  0.59957656  0.40885522     0.09000
C2452       C  0.56644439  0.56738018  0.40190054     0.20000
C2453       C  0.61596119  0.57746102  0.38919897    -0.54900
C2454       C  0.59862372  0.56039111  0.40610162     0.09100
C2455       C  0.57666519  0.58005098  0.35239703    -0.54400
C2456       C  0.55949248  0.56328784  0.36973233     0.09700
H2457       H  0.57931497  0.64032862  0.39330374     0.14200
H2458       H  0.55266907  0.55371351  0.41549613     0.00000
H2459       H  0.63944470  0.57585076  0.38924344     0.14500
H2460       H  0.57503683  0.58002812  0.32892427     0.14300
C2461       C  0.65073681  0.84912757  0.12085307     0.86100
C2462       C  0.63324728  0.82999988  0.14272436    -0.54100
C2463       C  0.65064847  0.81337092  0.15997346     0.09000
C2464       C  0.68281433  0.81762376  0.15305977     0.20000
C2465       C  0.67240108  0.86698521  0.13992941    -0.54900
C2466       C  0.68966693  0.84986114  0.15685892     0.09100
C2467       C  0.67010650  0.82726821  0.10350532    -0.54400
C2468       C  0.68707308  0.81036987  0.12099342     0.09700
H2469       H  0.60976718  0.82979490  0.14425561     0.14200
H2470       H  0.69650432  0.80415810  0.16691015     0.00000
H2471       H  0.67398578  0.89043924  0.13965791     0.14500
H2472       H  0.67015251  0.82545171  0.08003767     0.14300
C2473       C  0.59855986  0.90084550  0.06795728     0.86100
C2474       C  0.57651226  0.91992443  0.08525948    -0.54100
C2475       C  0.55954105  0.93670944  0.06774214     0.09000
C2476       C  0.56690228  0.93272756  0.03567456     0.20000
C2477       C  0.57967476  0.88322780  0.04592959    -0.54900
C2478       C  0.56299344  0.90054387  0.02859325     0.09100
C2479       C  0.61627586  0.92275283  0.04901340    -0.54400
C2480       C  0.59909277  0.93986559  0.03197442     0.09700
H2481       H  0.57458209  0.91990347  0.10871185     0.14200
H2482       H  0.55329340  0.94641461  0.02192882     0.00000
H2483       H  0.57972170  0.85977375  0.04432255     0.14500
H2484       H  0.63974068  0.92451867  0.04936455     0.14300
C2485       C  0.84939259  0.65066104  0.12102220     0.86100
C2486       C  0.86694159  0.66973848  0.14292156    -0.54100
C2487       C  0.84957007  0.68646293  0.16013935     0.09000
C2488       C  0.81740199  0.68228379  0.15316989     0.20000
C2489       C  0.82764557  0.63288781  0.14003852    -0.54900
C2490       C  0.81043059  0.65006006  0.15693257     0.09100
C2491       C  0.83015022  0.67258119  0.10362847    -0.54400
C2492       C  0.81321079  0.68953269  0.12108118     0.09700
H2493       H  0.89041656  0.66985721  0.14447500     0.14200
H2494       H  0.80373393  0.69577613  0.16701608     0.00000
H2495       H  0.82594669  0.60944250  0.13973030     0.14500
H2496       H  0.83011933  0.67435556  0.08016353     0.14300
C2497       C  0.90084604  0.59839453  0.06811299     0.86100
C2498       C  0.92282194  0.57924718  0.08540217    -0.54100
C2499       C  0.93978490  0.56249653  0.06785740     0.09000
C2500       C  0.93246322  0.56652257  0.03579207     0.20000
C2501       C  0.91978180  0.61602317  0.04618905    -0.54900
C2502       C  0.93645633  0.59873580  0.02886208     0.09100
C2503       C  0.88309795  0.57655936  0.04910058    -0.54400
C2504       C  0.90028515  0.55941726  0.03207735     0.09700
H2505       H  0.92477845  0.57926850  0.10885667     0.14200
H2506       H  0.94601581  0.55283384  0.02197580     0.00000
H2507       H  0.91984655  0.63948836  0.04469903     0.14500
H2508       H  0.85963169  0.57482467  0.04943283     0.14300
C2509       C  0.65084589  0.65074844  0.12067377     0.86100
C2510       C  0.66988493  0.63294588  0.14241823    -0.54100
C2511       C  0.68674412  0.65010947  0.15971896     0.09000
C2512       C  0.68275477  0.68236407  0.15292904     0.20000
C2513       C  0.63329977  0.67253539  0.13987363    -0.54900
C2514       C  0.65063179  0.68955126  0.15681858     0.09100
C2515       C  0.67279992  0.66998993  0.10332541    -0.54400
C2516       C  0.68989552  0.68672052  0.12084387     0.09700
H2517       H  0.66981167  0.60948780  0.14386656     0.14200
H2518       H  0.69633844  0.69588464  0.16682587     0.00000
H2519       H  0.60984262  0.67442178  0.13962997     0.14500
H2520       H  0.67444643  0.67022691  0.07985032     0.14300
C2521       C  0.59839411  0.59912828  0.06797148     0.86100
C2522       C  0.61609644  0.58017595  0.04610615    -0.54100
C2523       C  0.59889564  0.56340271  0.02878409     0.09000
C2524       C  0.56667801  0.56733975  0.03565432     0.20000
C2525       C  0.57657955  0.61679417  0.04889383    -0.54900
C2526       C  0.55952614  0.59952828  0.03188474     0.09100
C2527       C  0.57923900  0.57709213  0.08525907    -0.54400
C2528       C  0.56256233  0.56001362  0.06770509     0.09700
H2529       H  0.63958839  0.58018716  0.04464009     0.14200
H2530       H  0.55305591  0.55373375  0.02183758     0.00000
H2531       H  0.57477899  0.64023041  0.04918424     0.14500
H2532       H  0.57919639  0.57520053  0.10871957     0.14300
O2533       O  0.63084921  0.96929615  0.49930364    -0.74800
O2534       O  0.63076690  0.53066630  0.43856393    -0.74800
O2535       O  0.63096203  0.53041097  0.49955329    -0.74900
O2536       O  0.63059789  0.96959799  0.43843373    -0.75000
O2537       O  0.58325485  0.96751549  0.44557789    -0.74900
O2538       O  0.58361319  0.53232720  0.49262399    -0.74900
O2539       O  0.58341394  0.52364736  0.43667387    -0.74800
O2540       O  0.58353189  0.97640449  0.50158151    -0.74900
Ni2541     Ni  0.63316994  0.99999392  0.46897514     1.25400
Ni2542     Ni  0.58221612  0.99997612  0.46913419     1.25400
C2543       C  0.60626541  0.96362162  0.01075213     0.87400
C2544       C  0.60569230  0.53698321  0.42773792     0.87300
C2545       C  0.60614231  0.54192286  0.00534977     0.87300
C2546       C  0.60555945  0.95863922  0.43223888     0.87500
O2547       O  0.53316339  0.58453352  0.44673445    -0.74800
O2548       O  0.96621771  0.58406269  0.49116061    -0.74800
O2549       O  0.97789456  0.58402216  0.43560992    -0.74900
O2550       O  0.52208216  0.58452468  0.50240530    -0.75000
O2551       O  0.53035758  0.63161051  0.49921158    -0.74900
O2552       O  0.96897824  0.63102518  0.43898068    -0.74900
O2553       O  0.96928207  0.63111065  0.49981113    -0.74800
O2554       O  0.52969581  0.63158191  0.43825886    -0.74900
Ni2555     Ni  0.49980797  0.58311326  0.46903564     1.25400
Ni2556     Ni  0.49955896  0.63394855  0.46904074     1.25400
C2557       C  0.54123301  0.60667733  0.43259687     0.87400
C2558       C  0.95790676  0.60593639  0.00541219     0.87300
C2559       C  0.96363919  0.60605905  0.42742646     0.87300
C2560       C  0.53573116  0.60663405  0.01072823     0.87500
O2561       O  0.52981220  0.53045022  0.09935676    -0.74800
O2562       O  0.96964728  0.96890250  0.09970187    -0.74800
O2563       O  0.53026876  0.96948574  0.09957806    -0.74900
O2564       O  0.96912469  0.52978669  0.09959988    -0.75000
O2565       O  0.97760194  0.53328503  0.05255660    -0.74900
O2566       O  0.52197605  0.96635104  0.05248168    -0.75300
O2567       O  0.96622898  0.97785820  0.05274065    -0.74800
O2568       O  0.53329353  0.52216344  0.05228694    -0.74900
Ni2569     Ni  0.99979389  0.99958661  0.10250702     1.25400
Ni2570     Ni  0.99990014  0.99987328  0.05171909     1.25400
C2571       C  0.54137426  0.53619370  0.07450997     0.87400
C2572       C  0.95810357  0.96353542  0.07475182     0.87300
C2573       C  0.53591729  0.95803080  0.07466030     0.87300
C2574       C  0.96351758  0.54134952  0.07473455     0.87500
O2575       O  0.86824900  0.96928250  0.49926455    -0.74800
O2576       O  0.86855994  0.53003694  0.43838036    -0.74800
O2577       O  0.86863915  0.96923504  0.43842770    -0.74900
O2578       O  0.86819792  0.53023334  0.49915836    -0.75000
O2579       O  0.91501676  0.52097961  0.50331433    -0.74900
O2580       O  0.91548877  0.97872707  0.43481580    -0.74900
O2581       O  0.91534418  0.53413092  0.44797249    -0.74800
O2582       O  0.91512591  0.96561808  0.49009221    -0.74900
Ni2583     Ni  0.86572987  0.99969847  0.46878005     1.25400
Ni2584     Ni  0.91643746  0.99987365  0.46907031     1.25400
C2585       C  0.89388844  0.95765294  0.00464271     0.87400
C2586       C  0.89340068  0.54197253  0.43339211     0.87300
C2587       C  0.89358247  0.96422597  0.42669861     0.87300
C2588       C  0.89312280  0.53563020  0.01088291     0.87500
O2589       O  0.53049020  0.53034821  0.33769876    -0.74800
O2590       O  0.96952923  0.96986505  0.33803171    -0.74800
O2591       O  0.96962024  0.53073586  0.33825148    -0.74900
O2592       O  0.53004044  0.96926991  0.33768359    -0.75000
O2593       O  0.53386803  0.97814259  0.38460543    -0.74900
O2594       O  0.96596475  0.52142698  0.38512605    -0.74900
O2595       O  0.97857415  0.96601380  0.38494334    -0.74800
O2596       O  0.52174991  0.53376139  0.38467415    -0.74900
Ni2597     Ni  0.49985870  0.00000144  0.33535776     1.25400
Ni2598     Ni  0.50000228  0.99983959  0.38611510     1.25400
C2599       C  0.53591227  0.54195926  0.36260303     0.87400
C2600       C  0.96424908  0.95806920  0.36287046     0.87300
C2601       C  0.95784482  0.53582194  0.36315381     0.87300
C2602       C  0.54174500  0.96377792  0.36252954     0.87500
O2603       O  0.96964770  0.86882361  0.43798557    -0.74800
O2604       O  0.53006649  0.86745440  0.49939696    -0.74800
O2605       O  0.96924870  0.86820564  0.49877043    -0.74900
O2606       O  0.53069529  0.86797889  0.43838128    -0.75000
O2607       O  0.52186160  0.91498023  0.43519913    -0.74900
O2608       O  0.97808450  0.91515941  0.50261942    -0.74900
O2609       O  0.53368859  0.91440979  0.49066453    -0.74800
O2610       O  0.96628214  0.91580082  0.44701590    -0.74900
Ni2611     Ni  0.99993204  0.86596396  0.46855935     1.25400
Ni2612     Ni  0.99997331  0.91677162  0.46894120     1.25400
C2613       C  0.95805550  0.89380009  0.43273430     0.87400
C2614       C  0.54173321  0.89348432  0.00487409     0.87300
C2615       C  0.96385108  0.89321583  0.01030100     0.87300
C2616       C  0.53609185  0.89298817  0.42691704     0.87500
C2617       C  0.63221380  0.63245898  0.10199123    -0.13700
C2618       C  0.61688124  0.61750080  0.08671064    -0.15200
C2619       C  0.88265198  0.61693278  0.08692037    -0.13700
C2620       C  0.86781452  0.63221307  0.10233947    -0.15200
C2621       C  0.61693219  0.88240954  0.08675588    -0.13700
C2622       C  0.63211041  0.86740331  0.10214678    -0.15200
C2623       C  0.63240608  0.63270538  0.33639293    -0.13700
C2624       C  0.61700418  0.61764479  0.35144601    -0.15200
C2625       C  0.86739554  0.86759470  0.10178993    -0.13700
C2626       C  0.88259710  0.88240630  0.08623299    -0.15200
C2627       C  0.61741195  0.88246458  0.35163414    -0.13700
C2628       C  0.63264726  0.86712006  0.33672157    -0.15200
C2629       C  0.86737540  0.63249428  0.33673609    -0.13700
C2630       C  0.88248546  0.61722399  0.35189837    -0.15200
C2631       C  0.86739576  0.86771971  0.33635569    -0.13700
C2632       C  0.88271619  0.88293755  0.35133541    -0.15200
O2633       O  0.72858457  0.78390723  0.80422669    -0.74800
O2634       O  0.77144134  0.71592190  0.80402717    -0.74800
O2635       O  0.71600547  0.72841536  0.80413109    -0.74900
O2636       O  0.78400510  0.77137594  0.80407920    -0.75000
O2637       O  0.78019328  0.78067101  0.85092002    -0.74900
O2638       O  0.71998811  0.71902324  0.85093910    -0.74900
O2639       O  0.78082979  0.71976719  0.85085675    -0.74800
O2640       O  0.71929949  0.77996747  0.85105532    -0.74900
Ni2641     Ni  0.75000180  0.74991031  0.80282766     1.25400
Ni2642     Ni  0.75007787  0.74985712  0.85352983     1.25400
C2643       C  0.71410712  0.79179973  0.82619924     0.87400
C2644       C  0.78596460  0.70800066  0.82595851     0.87300
C2645       C  0.70818708  0.71381585  0.82606350     0.87300
C2646       C  0.79195677  0.78587643  0.82602399     0.87500
O2647       O  0.88134276  0.78098133  0.68926854    -0.74800
O2648       O  0.88090655  0.71960114  0.74967715    -0.74800
O2649       O  0.88152811  0.71990939  0.68882382    -0.74900
O2650       O  0.88076990  0.78041891  0.75000981    -0.75000
O2651       O  0.83381575  0.78391478  0.74092792    -0.74900
O2652       O  0.83454340  0.71635854  0.69738913    -0.74900
O2653       O  0.83386357  0.72825217  0.75285566    -0.74800
O2654       O  0.83446436  0.77194480  0.68530151    -0.74900
Ni2655     Ni  0.88366693  0.75023107  0.71944481     1.25400
Ni2656     Ni  0.83288850  0.75012329  0.71908279     1.25400
C2657       C  0.85650056  0.78643697  0.67753648     0.87400
C2658       C  0.85594318  0.71413373  0.76117124     0.87300
C2659       C  0.85670157  0.70812538  0.68338821     0.87300
C2660       C  0.85581637  0.79198730  0.75529695     0.87500
O2661       O  0.77172727  0.83409672  0.75303680    -0.74800
O2662       O  0.72800628  0.83484338  0.68569423    -0.74800
O2663       O  0.78354551  0.83482504  0.69758323    -0.74900
O2664       O  0.71617134  0.83410227  0.74130496    -0.75000
O2665       O  0.71968318  0.88105206  0.75048552    -0.74900
O2666       O  0.78000312  0.88183710  0.68906183    -0.74900
O2667       O  0.71897607  0.88173513  0.68970230    -0.74800
O2668       O  0.78043793  0.88115884  0.74993839    -0.74900
Ni2669     Ni  0.74985675  0.83319200  0.71936900     1.25400
Ni2670     Ni  0.74977491  0.88399078  0.71980526     1.25400
C2671       C  0.78585202  0.85615305  0.76136675     0.87400
C2672       C  0.71354904  0.85689900  0.67792903     0.87300
C2673       C  0.79172728  0.85698487  0.68353798     0.87300
C2674       C  0.70814117  0.85607037  0.75575638     0.87500
O2675       O  0.66642642  0.71637239  0.74159802    -0.74800
O2676       O  0.66575882  0.78321069  0.69718975    -0.74800
O2677       O  0.66634063  0.77208629  0.75275277    -0.74900
O2678       O  0.66582081  0.72752557  0.68591375    -0.75000
O2679       O  0.61880199  0.71902257  0.68946770    -0.74900
O2680       O  0.61919454  0.78028841  0.74996045    -0.74900
O2681       O  0.61865323  0.78007452  0.68910993    -0.74800
O2682       O  0.61935536  0.71946599  0.75020448    -0.74900
Ni2683     Ni  0.66734127  0.74979897  0.71933207     1.25400
Ni2684     Ni  0.61649739  0.74971224  0.71968573     1.25400
C2685       C  0.64434970  0.70807767  0.75569221     0.87400
C2686       C  0.64353210  0.79163298  0.68343347     0.87300
C2687       C  0.64419202  0.78595384  0.76126701     0.87300
C2688       C  0.64368128  0.71332494  0.67793607     0.87500
O2689       O  0.71957670  0.61850668  0.74968841    -0.74800
O2690       O  0.78112223  0.61811033  0.68945550    -0.74800
O2691       O  0.78041397  0.61874034  0.75024417    -0.74900
O2692       O  0.72009003  0.61794409  0.68875594    -0.75000
O2693       O  0.71654650  0.66493430  0.69735199    -0.74900
O2694       O  0.78384104  0.66570400  0.74112583    -0.74900
O2695       O  0.77208238  0.66501056  0.68552433    -0.74800
O2696       O  0.72822659  0.66556089  0.75282983    -0.74900
Ni2697     Ni  0.75030303  0.61577559  0.71954164     1.25400
Ni2698     Ni  0.75017655  0.66656638  0.71917573     1.25400
C2699       C  0.71411415  0.64348779  0.76116864     0.87400
C2700       C  0.78654913  0.64297312  0.67773481     0.87300
C2701       C  0.79193921  0.64373855  0.75552745     0.87300
C2702       C  0.70836825  0.64280880  0.68326673     0.87500
O2703       O  0.78057271  0.71956651  0.58924671    -0.74800
O2704       O  0.71946525  0.78042826  0.58923673    -0.74800
O2705       O  0.78033124  0.78057677  0.58925889    -0.74900
O2706       O  0.71962985  0.71942121  0.58917249    -0.75000
O2707       O  0.72655419  0.71736297  0.63652950    -0.74900
O2708       O  0.77342827  0.78252778  0.63663490    -0.74900
O2709       O  0.71741699  0.77344126  0.63658640    -0.74800
O2710       O  0.78258539  0.72644207  0.63661748    -0.74900
Ni2711     Ni  0.75000498  0.74999236  0.58682479     1.25400
Ni2712     Ni  0.74999581  0.74994059  0.63779151     1.25400
C2713       C  0.79150387  0.71319981  0.61424754     0.87400
C2714       C  0.70854307  0.78676169  0.61424490     0.87300
C2715       C  0.78658386  0.79153817  0.61426287     0.87300
C2716       C  0.71333339  0.70843951  0.61415882     0.87500
C2717       C  0.84872632  0.84884894  0.81804760     0.86100
C2718       C  0.86611623  0.82987928  0.79601887    -0.54100
C2719       C  0.84867884  0.81301835  0.77905895     0.09000
C2720       C  0.81657230  0.81675711  0.78644977     0.20000
C2721       C  0.82664568  0.86633961  0.79922945    -0.54900
C2722       C  0.80940901  0.84894395  0.78259961     0.09100
C2723       C  0.82993241  0.82690486  0.83581646    -0.54400
C2724       C  0.81300471  0.80966389  0.81867180     0.09700
H2725       H  0.88956667  0.83010124  0.79401439     0.14200
H2726       H  0.80282845  0.80297007  0.77285337     0.00000
H2727       H  0.82495027  0.88978433  0.79923120     0.14500
H2728       H  0.83029331  0.82519939  0.85928805     0.14300
C2729       C  0.90126428  0.90115061  0.86960477     0.86100
C2730       C  0.92320003  0.92011625  0.85205374    -0.54100
C2731       C  0.94036822  0.93688128  0.86940493     0.09000
C2732       C  0.93325415  0.93301191  0.90156961     0.20000
C2733       C  0.92023495  0.88352156  0.89148544    -0.54900
C2734       C  0.93708561  0.90080338  0.90864461     0.09100
C2735       C  0.88375632  0.92310313  0.88860831    -0.54400
C2736       C  0.90111068  0.94020143  0.90544492     0.09700
H2737       H  0.92493262  0.92002029  0.82858169     0.14200
H2738       H  0.94694017  0.94670279  0.91528805     0.00000
H2739       H  0.92007776  0.86007284  0.89317968     0.14500
H2740       H  0.86029010  0.92487942  0.88849381     0.14300
C2741       C  0.84886133  0.65130545  0.81820289     0.86100
C2742       C  0.82694376  0.67017608  0.83586233    -0.54100
C2743       C  0.80969169  0.68696596  0.81863018     0.09000
C2744       C  0.81671929  0.68324523  0.78641354     0.20000
C2745       C  0.82989207  0.63374219  0.79630281    -0.54900
C2746       C  0.81300130  0.65104825  0.77923419     0.09100
C2747       C  0.86628735  0.67335770  0.79921556    -0.54400
C2748       C  0.84885216  0.69050361  0.78247754     0.09700
H2749       H  0.82525595  0.66997091  0.85933258     0.14200
H2750       H  0.80291383  0.69692481  0.77276786     0.00000
H2751       H  0.83011940  0.61030298  0.79448045     0.14500
H2752       H  0.88975558  0.67513734  0.79923953     0.14300
C2753       C  0.90073950  0.59867374  0.87021787     0.86100
C2754       C  0.92259816  0.61617826  0.88931401    -0.54100
C2755       C  0.93966593  0.59879723  0.90614328     0.09000
C2756       C  0.93257379  0.56661581  0.90215441     0.20000
C2757       C  0.91977106  0.57675818  0.85267051    -0.54900
C2758       C  0.93653438  0.55954609  0.86999581     0.09100
C2759       C  0.88310878  0.57963779  0.89205720    -0.54400
C2760       C  0.90040057  0.56278845  0.90922267     0.09700
H2761       H  0.92432030  0.63962248  0.88928304     0.14200
H2762       H  0.94622962  0.55284210  0.91581169     0.00000
H2763       H  0.91973774  0.57509947  0.82919217     0.14500
H2764       H  0.85963585  0.57981841  0.89378627     0.14300
C2765       C  0.65123433  0.84861297  0.81842378     0.86100
C2766       C  0.67310538  0.82970118  0.83613113    -0.54100
C2767       C  0.69037385  0.81288755  0.81892121     0.09000
C2768       C  0.68338630  0.81664919  0.78670452     0.20000
C2769       C  0.67025407  0.86614751  0.79654982    -0.54900
C2770       C  0.68713897  0.84881437  0.77951398     0.09100
C2771       C  0.63380524  0.82659980  0.79940679    -0.54400
C2772       C  0.65124928  0.80945722  0.78269055     0.09700
H2773       H  0.67475198  0.82990678  0.85960693     0.14200
H2774       H  0.69721886  0.80299680  0.77308229     0.00000
H2775       H  0.67002735  0.88958635  0.79468599     0.14500
H2776       H  0.61033340  0.82488429  0.79934905     0.14300
C2777       C  0.59910783  0.90136430  0.87001055     0.86100
C2778       C  0.57714929  0.88382398  0.88896201    -0.54100
C2779       C  0.55996004  0.90116484  0.90570050     0.09000
C2780       C  0.56708193  0.93334759  0.90178907     0.20000
C2781       C  0.58015032  0.92326813  0.85235019    -0.54900
C2782       C  0.56326321  0.94044171  0.86960262     0.09100
C2783       C  0.61661056  0.92042550  0.89194571    -0.54400
C2784       C  0.59922884  0.93729252  0.90900556     0.09700
H2785       H  0.57543671  0.86038208  0.88888451     0.14200
H2786       H  0.55333670  0.94701552  0.91543750     0.00000
H2787       H  0.58032178  0.92494471  0.82887725     0.14500
H2788       H  0.64007326  0.92029983  0.89375624     0.14300
C2789       C  0.84874668  0.84941773  0.62067101     0.86100
C2790       C  0.82673038  0.83019217  0.60344561    -0.54100
C2791       C  0.80983806  0.81336860  0.62103450     0.09000
C2792       C  0.81715958  0.81763031  0.65308473     0.20000
C2793       C  0.82983344  0.86712415  0.64259460    -0.54900
C2794       C  0.81315511  0.84986497  0.65997831     0.09100
C2795       C  0.86649029  0.82761642  0.63968617    -0.54400
C2796       C  0.84932308  0.81049883  0.65671199     0.09700
H2797       H  0.82490696  0.83001059  0.57998287     0.14200
H2798       H  0.80368261  0.80401942  0.66701934     0.00000
H2799       H  0.82982104  0.89058264  0.64406957     0.14500
H2800       H  0.88995137  0.82576864  0.63923250     0.14300
C2801       C  0.90082642  0.90072660  0.56737751     0.86100
C2802       C  0.92272352  0.88297805  0.54846763    -0.54100
C2803       C  0.93981178  0.90019418  0.53142575     0.09000
C2804       C  0.93259988  0.93239009  0.53497578     0.20000
C2805       C  0.91990757  0.92284541  0.58459571    -0.54900
C2806       C  0.93666704  0.93980024  0.56702541     0.09100
C2807       C  0.88316799  0.91950915  0.54535443    -0.54400
C2808       C  0.90039946  0.93617610  0.52797326     0.09700
H2809       H  0.92458381  0.85955276  0.54892275     0.14200
H2810       H  0.94617378  0.94602065  0.52110626     0.00000
H2811       H  0.91995505  0.92478218  0.60805350     0.14500
H2812       H  0.85968199  0.91944808  0.54380383     0.14300
C2813       C  0.65129779  0.65092383  0.81816350     0.86100
C2814       C  0.63396287  0.67004469  0.79623105    -0.54100
C2815       C  0.65144596  0.68684517  0.77926919     0.09000
C2816       C  0.68356750  0.68288625  0.78653072     0.20000
C2817       C  0.67325119  0.63333881  0.79920086    -0.54900
C2818       C  0.69057160  0.65067885  0.78253902     0.09100
C2819       C  0.67027020  0.67274460  0.83589788    -0.54400
C2820       C  0.68723210  0.68993117  0.81873890     0.09700
H2821       H  0.61050377  0.67001899  0.79433761     0.14200
H2822       H  0.69738061  0.69662634  0.77297284     0.00000
H2823       H  0.67480025  0.60988058  0.79914469     0.14500
H2824       H  0.66991349  0.67448877  0.85936888     0.14300
C2825       C  0.59842658  0.59920030  0.87017322     0.86100
C2826       C  0.57930686  0.61679871  0.89198598    -0.54100
C2827       C  0.56252640  0.59945419  0.90918350     0.09000
C2828       C  0.56656015  0.56725464  0.90218954     0.20000
C2829       C  0.61601475  0.57739027  0.88929387    -0.54900
C2830       C  0.59874361  0.56023872  0.90616629     0.09100
C2831       C  0.57659266  0.58006718  0.85266410    -0.54400
C2832       C  0.55948746  0.56325375  0.87003042     0.09700
H2833       H  0.57932461  0.64024813  0.89361344     0.14200
H2834       H  0.55291363  0.55352956  0.91589219     0.00000
H2835       H  0.63949587  0.57572234  0.88919518     0.14500
H2836       H  0.57488573  0.58008740  0.82919520     0.14300
C2837       C  0.65068589  0.84909095  0.62101817     0.86100
C2838       C  0.63315776  0.82996663  0.64286682    -0.54100
C2839       C  0.65053259  0.81327020  0.66008009     0.09000
C2840       C  0.68270866  0.81748674  0.65316107     0.20000
C2841       C  0.67238905  0.86688248  0.64009131    -0.54900
C2842       C  0.68963024  0.84970463  0.65697556     0.09100
C2843       C  0.66999391  0.82722538  0.60362750    -0.54400
C2844       C  0.68691649  0.81026607  0.62108776     0.09700
H2845       H  0.60967761  0.82980222  0.64439709     0.14200
H2846       H  0.69641144  0.80400306  0.66698404     0.00000
H2847       H  0.67403424  0.89033354  0.63983565     0.14500
H2848       H  0.67003130  0.82544566  0.58015784     0.14300
C2849       C  0.59853261  0.90056692  0.56797831     0.86100
C2850       C  0.57657567  0.91986201  0.58515603    -0.54100
C2851       C  0.55954568  0.93645581  0.56752044     0.09000
C2852       C  0.56669695  0.93196366  0.53545479     0.20000
C2853       C  0.57958612  0.88262686  0.54625890    -0.54900
C2854       C  0.56282385  0.89967712  0.52875604     0.09100
C2855       C  0.61613879  0.92227815  0.54869322    -0.54400
C2856       C  0.59884648  0.93915213  0.53152066     0.09700
H2857       H  0.57487583  0.92025405  0.60862234     0.14200
H2858       H  0.55298454  0.94539339  0.52159289     0.00000
H2859       H  0.57974050  0.85915869  0.54489460     0.14500
H2860       H  0.63959667  0.92415459  0.54898996     0.14300
C2861       C  0.84932430  0.65082198  0.62079959     0.86100
C2862       C  0.86695567  0.66985934  0.64266160    -0.54100
C2863       C  0.84964561  0.68655589  0.65996667     0.09000
C2864       C  0.81744881  0.68243209  0.65308857     0.20000
C2865       C  0.82762446  0.63304799  0.63986085    -0.54900
C2866       C  0.81047131  0.65021270  0.65682286     0.09100
C2867       C  0.83004567  0.67277718  0.60349678    -0.54400
C2868       C  0.81319071  0.68973042  0.62103068     0.09700
H2869       H  0.89043700  0.66995383  0.64414534     0.14200
H2870       H  0.80379757  0.69591605  0.66697346     0.00000
H2871       H  0.82590089  0.60960492  0.63952472     0.14500
H2872       H  0.82993702  0.67458386  0.58003379     0.14300
C2873       C  0.90074227  0.59849071  0.56791948     0.86100
C2874       C  0.92276801  0.57934889  0.58517990    -0.54100
C2875       C  0.93971368  0.56258257  0.56760603     0.09000
C2876       C  0.93234753  0.56664076  0.53555260     0.20000
C2877       C  0.91961964  0.61612523  0.54595854    -0.54900
C2878       C  0.93629209  0.59886046  0.52861570     0.09100
C2879       C  0.88298615  0.57662296  0.54898357    -0.54400
C2880       C  0.90017051  0.55947104  0.53198685     0.09700
H2881       H  0.92471162  0.57932851  0.60863575     0.14200
H2882       H  0.94587917  0.55300164  0.52165365     0.00000
H2883       H  0.91966877  0.63958908  0.54447364     0.14500
H2884       H  0.85953108  0.57480275  0.54941425     0.14300
C2885       C  0.65099946  0.65065636  0.62074739     0.86100
C2886       C  0.67006661  0.63284980  0.64245380    -0.54100
C2887       C  0.68689561  0.65001647  0.65977109     0.09000
C2888       C  0.68286691  0.68227782  0.65302455     0.20000
C2889       C  0.63341903  0.67238312  0.63997537    -0.54900
C2890       C  0.65072759  0.68940541  0.65693132     0.09100
C2891       C  0.67290583  0.66994768  0.60341404    -0.54400
C2892       C  0.68998698  0.68666585  0.62094579     0.09700
H2893       H  0.67002578  0.60938733  0.64387361     0.14200
H2894       H  0.69645099  0.69581867  0.66690799     0.00000
H2895       H  0.60995869  0.67423038  0.63974033     0.14500
H2896       H  0.67454785  0.67021278  0.57993825     0.14300
C2897       C  0.59855551  0.59903885  0.56813757     0.86100
C2898       C  0.61616153  0.57981171  0.54640927    -0.54100
C2899       C  0.59886182  0.56302589  0.52918719     0.09000
C2900       C  0.56666238  0.56732030  0.53599705     0.20000
C2901       C  0.57691414  0.61676286  0.54891582    -0.54900
C2902       C  0.55976743  0.59953557  0.53197627     0.09100
C2903       C  0.57921458  0.57724918  0.58555112    -0.54400
C2904       C  0.56242774  0.56019077  0.56808537     0.09700
H2905       H  0.63965371  0.57964056  0.54498342     0.14200
H2906       H  0.55293469  0.55380092  0.52225082     0.00000
H2907       H  0.57531267  0.64021352  0.54904227     0.14500
H2908       H  0.57917093  0.57547216  0.60902000     0.14300
O2909       O  0.63122305  0.96946682  0.99941820    -0.74800
O2910       O  0.63095815  0.53098870  0.93884098    -0.74800
O2911       O  0.63113176  0.53055616  0.99973415    -0.74900
O2912       O  0.63118314  0.96999332  0.93848072    -0.75000
O2913       O  0.58406970  0.96685608  0.94663208    -0.74900
O2914       O  0.58404133  0.53342047  0.99143847    -0.74900
O2915       O  0.58389608  0.52249785  0.93579180    -0.74800
O2916       O  0.58410840  0.97755819  0.00240882    -0.74900
Ni2917     Ni  0.63361126  0.00023382  0.96917509     1.25400
Ni2918     Ni  0.58277186  0.00009079  0.96918552     1.25400
C2919       C  0.60583992  0.96290206  0.51021648     0.87400
C2920       C  0.60596205  0.53659839  0.92746497     0.87300
C2921       C  0.60591928  0.54128829  0.50587910     0.87300
C2922       C  0.60625420  0.95857735  0.93269581     0.87500
O2923       O  0.53317539  0.58442984  0.94701139    -0.74800
O2924       O  0.96641537  0.58380787  0.99152141    -0.74800
O2925       O  0.97718657  0.58380595  0.93584349    -0.74900
O2926       O  0.52160514  0.58448502  0.00262315    -0.75000
O2927       O  0.53008296  0.63152755  0.99916186    -0.74900
O2928       O  0.96877504  0.63091597  0.93889304    -0.74900
O2929       O  0.96921885  0.63094715  0.99975670    -0.74800
O2930       O  0.52952883  0.63142304  0.93827772    -0.74900
Ni2931     Ni  0.49960413  0.58300044  0.96902939     1.25400
Ni2932     Ni  0.49933123  0.63381802  0.96898033     1.25400
C2933       C  0.54122619  0.60654829  0.93281449     0.87400
C2934       C  0.95778177  0.60612364  0.50521070     0.87300
C2935       C  0.96318112  0.60593091  0.92750187     0.87300
C2936       C  0.53609613  0.60668002  0.51066246     0.87500
O2937       O  0.52981260  0.53038476  0.59979571    -0.74800
O2938       O  0.96935334  0.96914697  0.59890795    -0.74800
O2939       O  0.53024296  0.96940632  0.59926547    -0.74900
O2940       O  0.96904372  0.52980362  0.59933172    -0.75000
O2941       O  0.97725866  0.53303624  0.55221984    -0.74900
O2942       O  0.52290484  0.96703004  0.55197421    -0.75300
O2943       O  0.96666124  0.97710173  0.55171388    -0.74800
O2944       O  0.53295266  0.52256631  0.55263895    -0.74900
Ni2945     Ni  0.99960710  0.99972698  0.60160908     1.25400
Ni2946     Ni  0.99978027  0.99990703  0.55070802     1.25400
C2947       C  0.54117353  0.53640343  0.57491694     0.87400
C2948       C  0.95811515  0.96333859  0.57392195     0.87300
C2949       C  0.53628399  0.95824496  0.57430057     0.87300
C2950       C  0.96333855  0.54127315  0.57444047     0.87500
O2951       O  0.86895980  0.96923620  0.99925297    -0.74800
O2952       O  0.86839917  0.52986998  0.93821659    -0.74800
O2953       O  0.86903671  0.96909324  0.93839815    -0.74900
O2954       O  0.86827540  0.53023786  0.99910678    -0.75000
O2955       O  0.91518781  0.52132277  0.00286124    -0.74900
O2956       O  0.91599336  0.97805968  0.93494259    -0.74900
O2957       O  0.91527249  0.53376473  0.94738043    -0.74800
O2958       O  0.91595526  0.96589376  0.99047623    -0.74900
Ni2959     Ni  0.86633714  0.99959591  0.96876520     1.25400
Ni2960     Ni  0.91711521  0.99977777  0.96880984     1.25400
C2961       C  0.89313212  0.95747174  0.50440558     0.87400
C2962       C  0.89324754  0.54168061  0.93296948     0.87300
C2963       C  0.89395913  0.96380649  0.92674546     0.87300
C2964       C  0.89299367  0.53549839  0.51107352     0.87500
O2965       O  0.53039689  0.53047433  0.83794979    -0.74800
O2966       O  0.96930225  0.96982137  0.83741116    -0.74800
O2967       O  0.96952045  0.53062263  0.83791668    -0.74900
O2968       O  0.53033063  0.96956740  0.83754740    -0.75000
O2969       O  0.53372046  0.97815119  0.88454848    -0.74900
O2970       O  0.96606084  0.52169514  0.88486471    -0.74900
O2971       O  0.97831801  0.96609636  0.88432409    -0.74800
O2972       O  0.52191415  0.53355139  0.88500949    -0.74900
Ni2973     Ni  0.49995661  0.00015426  0.83517226     1.25400
Ni2974     Ni  0.49998669  0.99994227  0.88595477     1.25400
C2975       C  0.53593415  0.54191247  0.86290938     0.87400
C2976       C  0.96401862  0.95807314  0.86227695     0.87300
C2977       C  0.95786551  0.53594234  0.86283203     0.87300
C2978       C  0.54194515  0.96406241  0.86244373     0.87500
O2979       O  0.96979284  0.86858880  0.93775469    -0.74800
O2980       O  0.53021372  0.86858399  0.99916121    -0.74800
O2981       O  0.96934484  0.86831211  0.99867570    -0.74900
O2982       O  0.53063759  0.86899164  0.93825182    -0.75000
O2983       O  0.52224696  0.91610006  0.93525080    -0.74900
O2984       O  0.97795696  0.91534247  0.00211391    -0.74900
O2985       O  0.53350913  0.91567271  0.99088268    -0.74800
O2986       O  0.96653872  0.91562590  0.94646008    -0.74900
Ni2987     Ni  0.00001034  0.86588806  0.96842682     1.25400
Ni2988     Ni  0.00005339  0.91671479  0.96859706     1.25400
C2989       C  0.95831204  0.89356643  0.93227793     0.87400
C2990       C  0.54170692  0.89234845  0.50494803     0.87300
C2991       C  0.96374841  0.89305395  0.51048396     0.87300
C2992       C  0.53628434  0.89399047  0.92690784     0.87500
C2993       C  0.63241548  0.63237148  0.60205520    -0.13700
C2994       C  0.61710463  0.61739988  0.58678891    -0.15200
C2995       C  0.88253182  0.61704124  0.58669924    -0.13700
C2996       C  0.86768453  0.63236160  0.60206894    -0.15200
C2997       C  0.61697811  0.88237611  0.58689942    -0.13700
C2998       C  0.63212685  0.86741713  0.60233978    -0.15200
C2999       C  0.63248302  0.63253252  0.83648927    -0.13700
C3000       C  0.61701125  0.61759706  0.85161465    -0.15200
C3001       C  0.86714810  0.86771387  0.60179793    -0.13700
C3002       C  0.88234653  0.88251535  0.58625048    -0.15200
C3003       C  0.61759960  0.88271422  0.85166525    -0.13700
C3004       C  0.63269430  0.86725819  0.83671448    -0.15200
C3005       C  0.86736854  0.63270999  0.83660228    -0.13700
C3006       C  0.88237044  0.61731845  0.85172502    -0.15200
C3007       C  0.86738790  0.86743935  0.83624515    -0.13700
C3008       C  0.88270225  0.88268189  0.85117630    -0.15200
loop_ 
_geom_bond_atom_site_label_1 
_geom_bond_atom_site_label_2 
_geom_bond_distance 
_geom_bond_site_symmetry_2 
_ccdc_geom_bond_type 
O1           Ni9   1.855       .  S
O1           C11   1.268       .  A
O2           Ni9   1.855       .  S
O2           C12   1.268       .  A
O3           Ni9   1.857       .  S
O3           C13   1.268       .  A
O4           Ni9   1.856       .  S
O4           C14   1.268       .  A
O5          Ni10   1.993       .  S
O5           C14   1.294       .  A
O6          Ni10   1.992       .  S
O6           C13   1.294       .  A
O7          Ni10   1.991       .  S
O7           C12   1.293       .  A
O8          Ni10   1.992       .  S
O8           C11   1.293       .  A
Ni9         Ni10   2.341       .  S
C11         C135   1.505       .  S
C12         C111   1.503       .  S
C13         C188   1.505       .  S
C14          C92   1.505       .  S
O15         Ni23   1.992       .  S
O15          C25   1.293       .  A
O16         Ni23   1.991       .  S
O16          C26   1.293       .  A
O17         Ni23   1.991       .  S
O17          C27   1.293       .  A
O18         Ni23   1.988       .  S
O18          C28   1.293       .  A
O19         Ni24   1.855       .  S
O19          C28   1.268       .  A
O20         Ni24   1.851       .  S
O20          C27   1.267       .  A
O21         Ni24   1.856       .  S
O21          C26   1.269       .  A
O22         Ni24   1.855       .  S
O22          C25   1.268       .  A
Ni23        Ni24   2.347       .  S
C25         C164   1.506       .  S
C26         C116   1.504       .  S
C27         C231   1.505       .  S
C28          C87   1.502       .  S
O29         Ni37   1.853       .  S
O29          C39   1.268       .  A
O30         Ni37   1.854       .  S
O30          C40   1.268       .  A
O31         Ni37   1.853       .  S
O31          C41   1.268       .  A
O32         Ni37   1.856       .  S
O32          C42   1.269       .  A
O33         Ni38   1.990       .  S
O33          C42   1.293       .  A
O34         Ni38   1.993       .  S
O34          C41   1.293       .  A
O35         Ni38   1.992       .  S
O35          C40   1.293       .  A
O36         Ni38   1.990       .  S
O36          C39   1.293       .  A
Ni37        Ni38   2.344       .  S
C39          C90   1.502       .  S
C40         C210   1.505       .  S
C41         C162   1.507       .  S
C42         C138   1.503       .  S
O43         Ni51   1.855       .  S
O43          C53   1.268       .  A
O44         Ni51   1.851       .  S
O44          C54   1.268       .  A
O45         Ni51   1.854       .  S
O45          C55   1.268       .  A
O46         Ni51   1.855       .  S
O46          C56   1.269       .  A
O47         Ni52   1.990       .  S
O47          C56   1.293       .  A
O48         Ni52   1.990       .  S
O48          C55   1.293       .  A
O49         Ni52   1.992       .  S
O49          C54   1.293       .  A
O50         Ni52   1.989       .  S
O50          C53   1.293       .  A
Ni51        Ni52   2.347       .  S
C53         C183   1.502       .  S
C54         C207   1.505       .  S
C55         C140   1.503       .  S
C56         C258   1.505       .  S
O57         Ni65   1.991       .  S
O57          C67   1.293       .  A
O58         Ni65   1.992       .  S
O58          C68   1.293       .  A
O59         Ni65   1.991       .  S
O59          C69   1.293       .  A
O60         Ni65   1.994       .  S
O60          C70   1.293       .  A
O61         Ni66   1.852       .  S
O61          C70   1.268       .  A
O62         Ni66   1.856       .  S
O62          C69   1.268       .  A
O63         Ni66   1.855       .  S
O63          C68   1.268       .  A
O64         Ni66   1.855       .  S
O64          C67   1.268       .  A
Ni65        Ni66   2.342       .  S
C67         C186   1.505       .  S
C68         C234   1.505       .  S
C69         C114   1.503       .  S
C70         C255   1.506       .  S
O71         Ni79   1.993       .  S
O71          C81   1.293       .  A
O72         Ni79   1.993       .  S
O72          C82   1.293       .  A
O73         Ni79   1.991       .  S
O73          C83   1.293       .  A
O74         Ni79   1.991       .  S
O74          C84   1.293       .  A
O75         Ni80   1.854       .  S
O75          C84   1.268       .  A
O76         Ni80   1.853       .  S
O76          C83   1.268       .  A
O77         Ni80   1.856       .  S
O77          C82   1.269       .  A
O78         Ni80   1.856       .  S
O78          C81   1.269       .  A
Ni79        Ni80   2.352       .  S
C81         C236   1.507       .  S
C82         C212   1.508       .  S
C83         C159   1.505       .  S
C84         C260   1.506       .  S
C85          C86   1.564       .  S
C85          C91   1.566       .  S
C85          C89   1.564       .  S
C85         C375   1.477       .  S
C86          H93   1.086       .  S
C86          C87   1.366       .  D
C87          C88   1.531       .  S
C88          C92   1.532       .  S
C88          C90   1.532       .  S
C88          H94   1.095       .  S
C89          H95   1.084       .  S
C89          C90   1.366       .  D
C91          H96   1.087       .  S
C91          C92   1.367       .  D
C97          C98   1.564       .  S
C97         C103   1.564       .  S
C97         C101   1.565       .  S
C97         C376   1.477       .  S
C98         H105   1.086       .  S
C98          C99   1.366       .  D
C99         C344   1.501       .  S
C99         C100   1.531       .  S
C100        C104   1.531       .  S
C100        C102   1.532       .  S
C100        H106   1.095       .  S
C101        H107   1.085       .  S
C101        C102   1.367       .  D
C102        C357   1.504       .  S
C103        H108   1.086       .  S
C103        C104   1.367       .  D
C104        C331   1.503       .  S
C109        C110   1.564       .  S
C109        C115   1.565       .  S
C109        C113   1.564       .  S
C109        C373   1.480       .  S
C110        H117   1.086       .  S
C110        C111   1.367       .  D
C111        C112   1.532       .  S
C112        C116   1.531       .  S
C112        C114   1.531       .  S
C112        H118   1.096       .  S
C113        H119   1.085       .  S
C113        C114   1.366       .  D
C115        H120   1.086       .  S
C115        C116   1.368       .  D
C121        C122   1.564       .  S
C121        C127   1.565       .  S
C121        C125   1.565       .  S
C121        C374   1.480       .  S
C122        H129   1.084       .  S
C122        C123   1.366       .  D
C123        C303   1.502       .  S
C123        C124   1.532       .  S
C124        C128   1.531       .  S
C124        C126   1.531       .  S
C124        H130   1.095       .  S
C125        H131   1.087       .  S
C125        C126   1.367       .  D
C126        C345   1.504       .  S
C127        H132   1.086       .  S
C127        C128   1.367       .  D
C128        C330   1.503       .  S
C133        C134   1.565       .  S
C133        C139   1.565       .  S
C133        C137   1.564       .  S
C133        C372   1.479       .  S
C134        H141   1.086       .  S
C134        C135   1.367       .  D
C135        C136   1.532       .  S
C136        C140   1.531       .  S
C136        C138   1.531       .  S
C136        H142   1.095       .  S
C137        H143   1.085       .  S
C137        C138   1.366       .  D
C139        H144   1.086       .  S
C139        C140   1.367       .  D
C145        C146   1.564       .  S
C145        C151   1.565       .  S
C145        C149   1.565       .  S
C145        C371   1.479       .  S
C146        H153   1.084       .  S
C146        C147   1.366       .  D
C147        C360   1.503       .  S
C147        C148   1.531       .  S
C148        C152   1.531       .  S
C148        C150   1.531       .  S
C148        H154   1.095       .  S
C149        H155   1.086       .  S
C149        C150   1.367       .  D
C150        C346   1.503       .  S
C151        H156   1.086       .  S
C151        C152   1.367       .  D
C152        C290   1.504       .  S
C157        C158   1.566       .  S
C157        C163   1.567       .  S
C157        C161   1.566       .  S
C157        C369   1.480       .  S
C158        H165   1.086       .  S
C158        C159   1.367       .  D
C159        C160   1.530       .  S
C160        C164   1.530       .  S
C160        C162   1.531       .  S
C160        H166   1.092       .  S
C161        H167   1.084       .  S
C161        C162   1.368       .  D
C163        H168   1.086       .  S
C163        C164   1.367       .  D
C169        C170   1.567       .  S
C169        C175   1.565       .  S
C169        C173   1.564       .  S
C169        C370   1.480       .  S
C170        H177   1.084       .  S
C170        C171   1.368       .  D
C171        C359   1.505       .  S
C171        C172   1.531       .  S
C172        C176   1.531       .  S
C172        C174   1.530       .  S
C172        H178   1.094       .  S
C173        H179   1.087       .  S
C173        C174   1.366       .  D
C174        C316   1.503       .  S
C175        H180   1.086       .  S
C175        C176   1.367       .  D
C176        C329   1.503       .  S
C181        C182   1.564       .  S
C181        C187   1.565       .  S
C181        C185   1.565       .  S
C181        C367   1.481       .  S
C182        H189   1.086       .  S
C182        C183   1.366       .  D
C183        C184   1.531       .  S
C184        C188   1.532       .  S
C184        C186   1.532       .  S
C184        H190   1.095       .  S
C185        H191   1.084       .  S
C185        C186   1.367       .  D
C187        H192   1.087       .  S
C187        C188   1.367       .  D
C193        C194   1.566       .  S
C193        C199   1.564       .  S
C193        C197   1.565       .  S
C193        C368   1.481       .  S
C194        H201   1.084       .  S
C194        C195   1.368       .  D
C195        C301   1.505       .  S
C195        C196   1.531       .  S
C196        C200   1.531       .  S
C196        C198   1.531       .  S
C196        H202   1.095       .  S
C197        H203   1.086       .  S
C197        C198   1.367       .  D
C198        C288   1.505       .  S
C199        H204   1.086       .  S
C199        C200   1.367       .  D
C200        C343   1.503       .  S
C205        C206   1.566       .  S
C205        C211   1.568       .  S
C205        C209   1.566       .  S
C205        C366   1.482       .  S
C206        H213   1.086       .  S
C206        C207   1.367       .  D
C207        C208   1.531       .  S
C208        C212   1.530       .  S
C208        C210   1.531       .  S
C208        H214   1.092       .  S
C209        H215   1.084       .  S
C209        C210   1.367       .  D
C211        H216   1.086       .  S
C211        C212   1.368       .  D
C217        C218   1.565       .  S
C217        C223   1.567       .  S
C217        C221   1.566       .  S
C217        C365   1.481       .  S
C218        H225   1.086       .  S
C218        C219   1.366       .  D
C219        C317   1.502       .  S
C219        C220   1.530       .  S
C220        C224   1.531       .  S
C220        C222   1.532       .  S
C220        H226   1.094       .  S
C221        H227   1.085       .  S
C221        C222   1.368       .  D
C222        C358   1.506       .  S
C223        H228   1.086       .  S
C223        C224   1.368       .  D
C224        C287   1.507       .  S
C229        C230   1.566       .  S
C229        C235   1.567       .  S
C229        C233   1.565       .  S
C229        C364   1.479       .  S
C230        H237   1.086       .  S
C230        C231   1.367       .  D
C231        C232   1.532       .  S
C232        C236   1.530       .  S
C232        C234   1.531       .  S
C232        H238   1.093       .  S
C233        H239   1.084       .  S
C233        C234   1.366       .  D
C235        H240   1.086       .  S
C235        C236   1.368       .  D
C241        C242   1.564       .  S
C241        C247   1.566       .  S
C241        C245   1.565       .  S
C241        C363   1.479       .  S
C242        H249   1.086       .  S
C242        C243   1.366       .  D
C243        C318   1.500       .  S
C243        C244   1.530       .  S
C244        C248   1.531       .  S
C244        C246   1.531       .  S
C244        H250   1.095       .  S
C245        H251   1.085       .  S
C245        C246   1.366       .  D
C246        C302   1.503       .  S
C247        H252   1.086       .  S
C247        C248   1.368       .  D
C248        C332   1.506       .  S
C253        C254   1.566       .  S
C253        C259   1.567       .  S
C253        C257   1.566       .  S
C253        C361   1.482       .  S
C254        H261   1.084       .  S
C254        C255   1.367       .  D
C255        C256   1.532       .  S
C256        C260   1.530       .  S
C256        C258   1.530       .  S
C256        H262   1.093       .  S
C257        H263   1.086       .  S
C257        C258   1.367       .  D
C259        H264   1.086       .  S
C259        C260   1.368       .  D
C265        C266   1.566       .  S
C265        C271   1.566       .  S
C265        C269   1.566       .  S
C265        C362   1.482       .  S
C266        H273   1.086       .  S
C266        C267   1.368       .  D
C267        C289   1.506       .  S
C267        C268   1.531       .  S
C268        C272   1.530       .  S
C268        C270   1.531       .  S
C268        H274   1.093       .  S
C269        H275   1.084       .  S
C269        C270   1.368       .  D
C270        C304   1.506       .  S
C271        H276   1.087       .  S
C271        C272   1.367       .  D
C272        C315   1.506       .  S
O277       Ni285   1.992       .  S
O277        C663   1.293       .  A
O278      Ni1037   1.992       .  S
O278        C288   1.294       .  A
O279      Ni1037   1.993       .  S
O279        C665   1.293       .  A
O280       Ni285   1.991       .  S
O280        C290   1.293       .  A
O281       Ni286   1.854       .  S
O281        C290   1.268       .  A
O282      Ni1038   1.853   1_545  S
O282        C665   1.268       .  A
O283      Ni1038   1.856   1_545  S
O283        C288   1.268       .  A
O284       Ni286   1.854       .  S
O284        C663   1.268       .  A
Ni285      O1030   1.992       .  S
Ni285      O1031   1.992       .  S
Ni285      Ni286   2.347       .  S
Ni286      O1034   1.851       .  S
Ni286      O1035   1.855       .  S
C287        O653   1.294   1_554  A
C287        O660   1.268       .  A
C289        O655   1.293   1_554  A
C289        O658   1.268   1_554  A
O291       Ni299   1.855   1_455  S
O291        C301   1.268       .  A
O292      Ni1803   1.852       .  S
O292        C678   1.268       .  A
O293      Ni1803   1.854       .  S
O293        C303   1.268       .  A
O294       Ni299   1.854   1_455  S
O294        C680   1.268       .  A
O295       Ni300   1.991   1_455  S
O295        C680   1.293       .  A
O296      Ni1804   1.990       .  S
O296        C303   1.293       .  A
O297      Ni1804   1.992       .  S
O297        C678   1.293       .  A
O298       Ni300   1.991   1_455  S
O298        C301   1.293       .  A
Ni299      O1796   1.853       .  S
Ni299      O1797   1.856       .  S
Ni299      Ni300   2.344       .  S
Ni300      O1800   1.989       .  S
Ni300      O1801   1.992       .  S
C302        O668   1.268   1_554  A
C302        O673   1.293   1_554  A
C304        O670   1.268       .  A
C304        O671   1.293   1_554  A
O305      Ni2569   1.991   1_445  S
O305        C315   1.293       .  A
O306       Ni313   1.988       .  S
O306        C316   1.293       .  A
O307      Ni1817   1.987   1_455  S
O307        C317   1.292       .  A
O308      Ni1065   1.986   1_545  S
O308        C318   1.292       .  A
O309      Ni1066   1.855   1_545  S
O309        C318   1.268       .  A
O310      Ni1818   1.855   1_455  S
O310        C317   1.269       .  A
O311       Ni314   1.857       .  S
O311        C316   1.269       .  A
O312      Ni2570   1.856   1_445  S
O312        C315   1.269       .  A
Ni313      O2561   1.989       .  S
Ni313      O1811   1.987       .  S
Ni313      O1060   1.985       .  S
Ni313      Ni314   2.347       .  S
Ni314      O1061   1.856       .  S
Ni314      O1814   1.856       .  S
Ni314      O2568   1.857       .  S
O319       Ni327   1.991       .  S
O319        C705   1.293       .  A
O320      Ni1079   1.989   1_545  S
O320        C330   1.293       .  A
O321       Ni327   1.990       .  S
O321        C331   1.293       .  A
O322      Ni1079   1.991   1_545  S
O322        C708   1.293       .  A
O323      Ni1080   1.857   1_545  S
O323        C708   1.269       .  A
O324       Ni328   1.857       .  S
O324        C331   1.269       .  A
O325      Ni1080   1.855   1_545  S
O325        C330   1.268       .  A
O326       Ni328   1.854       .  S
O326        C705   1.268       .  A
Ni327      O1072   1.989       .  S
Ni327      O1074   1.992       .  S
Ni327      Ni328   2.344       .  S
Ni328      O1075   1.856       .  S
Ni328      O1077   1.855       .  S
C329        O695   1.293   1_554  A
C329        O702   1.268   1_554  A
C332        O698   1.293   1_554  A
C332        O699   1.269       .  A
O333      Ni1093   1.988   1_455  S
O333        C343   1.293       .  A
O334      Ni1845   1.987       .  S
O334        C344   1.292       .  A
O335      Ni2597   1.990       .  S
O335        C345   1.293       .  A
O336       Ni341   1.989   1_455  S
O336        C346   1.293       .  A
O337       Ni342   1.857       .  S
O337        C346   1.269       .  A
O338      Ni2598   1.859   1_545  S
O338        C345   1.269       .  A
O339      Ni1846   1.855       .  S
O339        C344   1.268       .  A
O340      Ni1094   1.856       .  S
O340        C343   1.269       .  A
Ni341      O1085   1.988   1_655  S
Ni341      O1838   1.987       .  S
Ni341      O2591   1.989       .  S
Ni341      Ni342   2.342   1_655  S
Ni342      O2594   1.858   1_455  S
Ni342      O1843   1.858   1_455  S
Ni342      O1092   1.856       .  S
O347       Ni355   1.992       .  S
O347        C357   1.293       .  A
O348      Ni1859   1.993       .  S
O348        C734   1.293       .  A
O349       Ni355   1.991       .  S
O349        C735   1.293       .  A
O350      Ni1859   1.990       .  S
O350        C360   1.293       .  A
O351      Ni1860   1.856       .  S
O351        C360   1.268       .  A
O352       Ni356   1.854       .  S
O352        C735   1.268       .  A
O353      Ni1860   1.854       .  S
O353        C734   1.268       .  A
O354       Ni356   1.855       .  S
O354        C357   1.268       .  A
Ni355      O1852   1.994       .  S
Ni355      O1854   1.992       .  S
Ni355      Ni356   2.343       .  S
Ni356      O1855   1.853       .  S
Ni356      O1857   1.853       .  S
C358        O724   1.293   1_554  A
C358        O729   1.268   1_554  A
C359        O725   1.293   1_554  A
C359        O728   1.268       .  A
C361        C362   1.215       .  T
C363        C364   1.213       .  T
C365        C366   1.214       .  T
C367        C368   1.214       .  T
C369        C370   1.214       .  T
C371        C372   1.213       .  T
C373        C374   1.213       .  T
C375        C376   1.212       .  T
O377       Ni385   1.855       .  S
O377        C387   1.268       .  A
O378       Ni385   1.856       .  S
O378        C388   1.268       .  A
O379       Ni385   1.857       .  S
O379        C389   1.268       .  A
O380       Ni385   1.856       .  S
O380        C390   1.268       .  A
O381       Ni386   1.992       .  S
O381        C390   1.294       .  A
O382       Ni386   1.992       .  S
O382        C389   1.293       .  A
O383       Ni386   1.989       .  S
O383        C388   1.293       .  A
O384       Ni386   1.990       .  S
O384        C387   1.293       .  A
Ni385      Ni386   2.340       .  S
C387        C511   1.503       .  S
C388        C487   1.502       .  S
C389        C564   1.505       .  S
C390        C468   1.504       .  S
O391       Ni399   1.992       .  S
O391        C401   1.293       .  A
O392       Ni399   1.991       .  S
O392        C402   1.293       .  A
O393       Ni399   1.991       .  S
O393        C403   1.293       .  A
O394       Ni399   1.987       .  S
O394        C404   1.293       .  A
O395       Ni400   1.855       .  S
O395        C404   1.268       .  A
O396       Ni400   1.852       .  S
O396        C403   1.268       .  A
O397       Ni400   1.856       .  S
O397        C402   1.269       .  A
O398       Ni400   1.856       .  S
O398        C401   1.269       .  A
Ni399      Ni400   2.346       .  S
C401        C540   1.506       .  S
C402        C492   1.505       .  S
C403        C607   1.505       .  S
C404        C463   1.500       .  S
O405       Ni413   1.854       .  S
O405        C415   1.268       .  A
O406       Ni413   1.854       .  S
O406        C416   1.268       .  A
O407       Ni413   1.853       .  S
O407        C417   1.268       .  A
O408       Ni413   1.855       .  S
O408        C418   1.268       .  A
O409       Ni414   1.989       .  S
O409        C418   1.293       .  A
O410       Ni414   1.993       .  S
O410        C417   1.293       .  A
O411       Ni414   1.991       .  S
O411        C416   1.293       .  A
O412       Ni414   1.990       .  S
O412        C415   1.293       .  A
Ni413      Ni414   2.344       .  S
C415        C466   1.503       .  S
C416        C586   1.505       .  S
C417        C538   1.507       .  S
C418        C514   1.502       .  S
O419       Ni427   1.855       .  S
O419        C429   1.268       .  A
O420       Ni427   1.851       .  S
O420        C430   1.268       .  A
O421       Ni427   1.855       .  S
O421        C431   1.269       .  A
O422       Ni427   1.856       .  S
O422        C432   1.269       .  A
O423       Ni428   1.990       .  S
O423        C432   1.293       .  A
O424       Ni428   1.989       .  S
O424        C431   1.293       .  A
O425       Ni428   1.990       .  S
O425        C430   1.293       .  A
O426       Ni428   1.986       .  S
O426        C429   1.292       .  A
Ni427      Ni428   2.346       .  S
C429        C559   1.500       .  S
C430        C583   1.504       .  S
C431        C516   1.503       .  S
C432        C634   1.504       .  S
O433       Ni441   1.991       .  S
O433        C443   1.293       .  A
O434       Ni441   1.992       .  S
O434        C444   1.293       .  A
O435       Ni441   1.989       .  S
O435        C445   1.293       .  A
O436       Ni441   1.993       .  S
O436        C446   1.293       .  A
O437       Ni442   1.852       .  S
O437        C446   1.268       .  A
O438       Ni442   1.855       .  S
O438        C445   1.268       .  A
O439       Ni442   1.854       .  S
O439        C444   1.268       .  A
O440       Ni442   1.855       .  S
O440        C443   1.269       .  A
Ni441      Ni442   2.343       .  S
C443        C562   1.504       .  S
C444        C610   1.505       .  S
C445        C490   1.502       .  S
C446        C631   1.506       .  S
O447       Ni455   1.993       .  S
O447        C457   1.293       .  A
O448       Ni455   1.993       .  S
O448        C458   1.293       .  A
O449       Ni455   1.991       .  S
O449        C459   1.293       .  A
O450       Ni455   1.992       .  S
O450        C460   1.293       .  A
O451       Ni456   1.852       .  S
O451        C460   1.268       .  A
O452       Ni456   1.851       .  S
O452        C459   1.268       .  A
O453       Ni456   1.854       .  S
O453        C458   1.268       .  A
O454       Ni456   1.854       .  S
O454        C457   1.268       .  A
Ni455      Ni456   2.353       .  S
C457        C612   1.507       .  S
C458        C588   1.508       .  S
C459        C535   1.505       .  S
C460        C636   1.506       .  S
C461        C462   1.563       .  S
C461        C467   1.565       .  S
C461        C465   1.564       .  S
C461        C751   1.477       .  S
C462        H469   1.086       .  S
C462        C463   1.366       .  D
C463        C464   1.531       .  S
C464        C468   1.532       .  S
C464        C466   1.532       .  S
C464        H470   1.096       .  S
C465        H471   1.084       .  S
C465        C466   1.366       .  D
C467        H472   1.087       .  S
C467        C468   1.367       .  D
C473        C474   1.564       .  S
C473        C479   1.564       .  S
C473        C477   1.565       .  S
C473        C752   1.477       .  S
C474        H481   1.086       .  S
C474        C475   1.367       .  D
C475        C720   1.502       .  S
C475        C476   1.531       .  S
C476        C480   1.531       .  S
C476        C478   1.531       .  S
C476        H482   1.095       .  S
C477        H483   1.084       .  S
C477        C478   1.367       .  D
C478        C733   1.504       .  S
C479        H484   1.086       .  S
C479        C480   1.366       .  D
C480        C707   1.504       .  S
C485        C486   1.564       .  S
C485        C491   1.565       .  S
C485        C489   1.564       .  S
C485        C749   1.478       .  S
C486        H493   1.086       .  S
C486        C487   1.366       .  D
C487        C488   1.532       .  S
C488        C492   1.532       .  S
C488        C490   1.531       .  S
C488        H494   1.096       .  S
C489        H495   1.085       .  S
C489        C490   1.366       .  D
C491        H496   1.086       .  S
C491        C492   1.368       .  D
C497        C498   1.564       .  S
C497        C503   1.564       .  S
C497        C501   1.565       .  S
C497        C750   1.478       .  S
C498        H505   1.084       .  S
C498        C499   1.366       .  D
C499        C679   1.502       .  S
C499        C500   1.531       .  S
C500        C504   1.531       .  S
C500        C502   1.531       .  S
C500        H506   1.095       .  S
C501        H507   1.087       .  S
C501        C502   1.367       .  D
C502        C721   1.505       .  S
C503        H508   1.086       .  S
C503        C504   1.367       .  D
C504        C706   1.502       .  S
C509        C510   1.565       .  S
C509        C515   1.565       .  S
C509        C513   1.564       .  S
C509        C748   1.478       .  S
C510        H517   1.086       .  S
C510        C511   1.367       .  D
C511        C512   1.532       .  S
C512        C516   1.531       .  S
C512        C514   1.531       .  S
C512        H518   1.095       .  S
C513        H519   1.085       .  S
C513        C514   1.366       .  D
C515        H520   1.086       .  S
C515        C516   1.367       .  D
C521        C522   1.564       .  S
C521        C527   1.565       .  S
C521        C525   1.566       .  S
C521        C747   1.479       .  S
C522        H529   1.084       .  S
C522        C523   1.366       .  D
C523        C736   1.503       .  S
C523        C524   1.532       .  S
C524        C528   1.531       .  S
C524        C526   1.531       .  S
C524        H530   1.094       .  S
C525        H531   1.086       .  S
C525        C526   1.367       .  D
C526        C722   1.505       .  S
C527        H532   1.086       .  S
C527        C528   1.367       .  D
C528        C666   1.504       .  S
C533        C534   1.566       .  S
C533        C539   1.566       .  S
C533        C537   1.567       .  S
C533        C745   1.480       .  S
C534        H541   1.086       .  S
C534        C535   1.367       .  D
C535        C536   1.531       .  S
C536        C540   1.530       .  S
C536        C538   1.532       .  S
C536        H542   1.093       .  S
C537        H543   1.084       .  S
C537        C538   1.368       .  D
C539        H544   1.086       .  S
C539        C540   1.367       .  D
C545        C546   1.566       .  S
C545        C551   1.565       .  S
C545        C549   1.564       .  S
C545        C746   1.480       .  S
C546        H553   1.084       .  S
C546        C547   1.368       .  D
C547        C735   1.505       .  S
C547        C548   1.531       .  S
C548        C552   1.531       .  S
C548        C550   1.530       .  S
C548        H554   1.094       .  S
C549        H555   1.087       .  S
C549        C550   1.366       .  D
C550        C692   1.503       .  S
C551        H556   1.086       .  S
C551        C552   1.367       .  D
C552        C705   1.504       .  S
C557        C558   1.563       .  S
C557        C563   1.565       .  S
C557        C561   1.565       .  S
C557        C743   1.480       .  S
C558        H565   1.086       .  S
C558        C559   1.365       .  D
C559        C560   1.531       .  S
C560        C564   1.531       .  S
C560        C562   1.532       .  S
C560        H566   1.096       .  S
C561        H567   1.085       .  S
C561        C562   1.367       .  D
C563        H568   1.087       .  S
C563        C564   1.367       .  D
C569        C570   1.566       .  S
C569        C575   1.565       .  S
C569        C573   1.566       .  S
C569        C744   1.480       .  S
C570        H577   1.084       .  S
C570        C571   1.368       .  D
C571        C677   1.506       .  S
C571        C572   1.531       .  S
C572        C576   1.531       .  S
C572        C574   1.532       .  S
C572        H578   1.094       .  S
C573        H579   1.086       .  S
C573        C574   1.367       .  D
C574        C664   1.507       .  S
C575        H580   1.086       .  S
C575        C576   1.366       .  D
C576        C719   1.503       .  S
C581        C582   1.565       .  S
C581        C587   1.567       .  S
C581        C585   1.566       .  S
C581        C742   1.481       .  S
C582        H589   1.086       .  S
C582        C583   1.367       .  D
C583        C584   1.531       .  S
C584        C588   1.530       .  S
C584        C586   1.530       .  S
C584        H590   1.092       .  S
C585        H591   1.084       .  S
C585        C586   1.367       .  D
C587        H592   1.087       .  S
C587        C588   1.368       .  D
C593        C594   1.565       .  S
C593        C599   1.566       .  S
C593        C597   1.566       .  S
C593        C741   1.481       .  S
C594        H601   1.086       .  S
C594        C595   1.367       .  D
C595        C693   1.504       .  S
C595        C596   1.530       .  S
C596        C600   1.531       .  S
C596        C598   1.531       .  S
C596        H602   1.093       .  S
C597        H603   1.084       .  S
C597        C598   1.367       .  D
C598        C734   1.506       .  S
C599        H604   1.086       .  S
C599        C600   1.368       .  D
C600        C663   1.506       .  S
C605        C606   1.566       .  S
C605        C611   1.567       .  S
C605        C609   1.565       .  S
C605        C740   1.479       .  S
C606        H613   1.086       .  S
C606        C607   1.367       .  D
C607        C608   1.532       .  S
C608        C612   1.530       .  S
C608        C610   1.531       .  S
C608        H614   1.093       .  S
C609        H615   1.085       .  S
C609        C610   1.366       .  D
C611        H616   1.086       .  S
C611        C612   1.368       .  D
C617        C618   1.564       .  S
C617        C623   1.567       .  S
C617        C621   1.565       .  S
C617        C739   1.478       .  S
C618        H625   1.086       .  S
C618        C619   1.366       .  D
C619        C694   1.501       .  S
C619        C620   1.530       .  S
C620        C624   1.530       .  S
C620        C622   1.532       .  S
C620        H626   1.094       .  S
C621        H627   1.085       .  S
C621        C622   1.366       .  D
C622        C678   1.504       .  S
C623        H628   1.086       .  S
C623        C624   1.368       .  D
C624        C708   1.506       .  S
C629        C630   1.566       .  S
C629        C635   1.567       .  S
C629        C633   1.566       .  S
C629        C737   1.481       .  S
C630        H637   1.084       .  S
C630        C631   1.367       .  D
C631        C632   1.532       .  S
C632        C636   1.530       .  S
C632        C634   1.530       .  S
C632        H638   1.093       .  S
C633        H639   1.086       .  S
C633        C634   1.367       .  D
C635        H640   1.087       .  S
C635        C636   1.368       .  D
C641        C642   1.566       .  S
C641        C647   1.566       .  S
C641        C645   1.566       .  S
C641        C738   1.481       .  S
C642        H649   1.086       .  S
C642        C643   1.367       .  D
C643        C665   1.506       .  S
C643        C644   1.531       .  S
C644        C648   1.530       .  S
C644        C646   1.531       .  S
C644        H650   1.093       .  S
C645        H651   1.084       .  S
C645        C646   1.367       .  D
C646        C680   1.505       .  S
C647        H652   1.087       .  S
C647        C648   1.368       .  D
C648        C691   1.505       .  S
O653       Ni661   1.993       .  S
O654      Ni1413   1.994       .  S
O654        C664   1.294       .  A
O655      Ni1413   1.992       .  S
O656       Ni661   1.991       .  S
O656        C666   1.293       .  A
O657       Ni662   1.854       .  S
O657        C666   1.268       .  A
O658      Ni1414   1.854       .  S
O659      Ni1414   1.853       .  S
O659        C664   1.268       .  A
O660       Ni662   1.855   1_554  S
Ni661      O1406   1.994       .  S
Ni661      O1407   1.992       .  S
Ni661      Ni662   2.346       .  S
Ni662      O1410   1.853       .  S
Ni662      O1411   1.854       .  S
O667       Ni675   1.854   1_455  S
O667        C677   1.268       .  A
O668      Ni2179   1.854       .  S
O669      Ni2179   1.855       .  S
O669        C679   1.268       .  A
O670       Ni675   1.853   1_454  S
O671       Ni676   1.992   1_455  S
O672      Ni2180   1.989       .  S
O672        C679   1.293       .  A
O673      Ni2180   1.991       .  S
O674       Ni676   1.992   1_455  S
O674        C677   1.293       .  A
Ni675      O2172   1.854       .  S
Ni675      O2173   1.853       .  S
Ni675      Ni676   2.347       .  S
Ni676      O2176   1.990       .  S
Ni676      O2177   1.991       .  S
O681      Ni2945   1.990   1_445  S
O681        C691   1.293       .  A
O682       Ni689   1.989       .  S
O682        C692   1.293       .  A
O683      Ni2193   1.989   1_455  S
O683        C693   1.292       .  A
O684      Ni1441   1.987   1_545  S
O684        C694   1.292       .  A
O685      Ni1442   1.852   1_545  S
O685        C694   1.268       .  A
O686      Ni2194   1.855   1_455  S
O686        C693   1.269       .  A
O687       Ni690   1.855       .  S
O687        C692   1.269       .  A
O688      Ni2946   1.855   1_445  S
O688        C691   1.269       .  A
Ni689      O2937   1.990       .  S
Ni689      O2187   1.990       .  S
Ni689      O1436   1.988       .  S
Ni689      Ni690   2.349       .  S
Ni690      O1437   1.853       .  S
Ni690      O2190   1.853       .  S
Ni690      O2944   1.854       .  S
O695       Ni703   1.990       .  S
O696      Ni1455   1.988   1_545  S
O696        C706   1.293       .  A
O697       Ni703   1.991       .  S
O697        C707   1.293       .  A
O698      Ni1455   1.991   1_545  S
O699      Ni1456   1.858   1_544  S
O700       Ni704   1.857       .  S
O700        C707   1.268       .  A
O701      Ni1456   1.856   1_545  S
O701        C706   1.268       .  A
O702       Ni704   1.854       .  S
Ni703      O1448   1.988       .  S
Ni703      O1450   1.992       .  S
Ni703      Ni704   2.342       .  S
Ni704      O1451   1.857   1_556  S
Ni704      O1453   1.855       .  S
O709      Ni1469   1.989   1_455  S
O709        C719   1.293       .  A
O710      Ni2221   1.988       .  S
O710        C720   1.293       .  A
O711      Ni2973   1.991       .  S
O711        C721   1.293       .  A
O712       Ni717   1.991   1_455  S
O712        C722   1.293       .  A
O713       Ni718   1.857   1_455  S
O713        C722   1.269       .  A
O714      Ni2974   1.856   1_545  S
O714        C721   1.268       .  A
O715      Ni2222   1.854       .  S
O715        C720   1.268       .  A
O716      Ni1470   1.854   1_445  S
O716        C719   1.268       .  A
Ni717      O1461   1.988   1_655  S
Ni717      O2214   1.987       .  S
Ni717      O2967   1.991       .  S
Ni717      Ni718   2.344       .  S
Ni718      O2970   1.857       .  S
Ni718      O2219   1.855       .  S
Ni718      O1468   1.855   1_655  S
O723       Ni731   1.991       .  S
O723        C733   1.293       .  A
O724      Ni2235   1.993       .  S
O725       Ni731   1.991       .  S
O726      Ni2235   1.991       .  S
O726        C736   1.293       .  A
O727      Ni2236   1.853       .  S
O727        C736   1.268       .  A
O728       Ni732   1.855   1_554  S
O729      Ni2236   1.853       .  S
O730       Ni732   1.855       .  S
O730        C733   1.268       .  A
Ni731      O2228   1.992       .  S
Ni731      O2230   1.991       .  S
Ni731      Ni732   2.345       .  S
Ni732      O2231   1.854       .  S
Ni732      O2233   1.854       .  S
C737        C738   1.214       .  T
C739        C740   1.213       .  T
C741        C742   1.214       .  T
C743        C744   1.213       .  T
C745        C746   1.214       .  T
C747        C748   1.213       .  T
C749        C750   1.212       .  T
C751        C752   1.212       .  T
O753       Ni761   1.854       .  S
O753        C763   1.268       .  A
O754       Ni761   1.855       .  S
O754        C764   1.268       .  A
O755       Ni761   1.857       .  S
O755        C765   1.268       .  A
O756       Ni761   1.856       .  S
O756        C766   1.268       .  A
O757       Ni762   1.992       .  S
O757        C766   1.294       .  A
O758       Ni762   1.992       .  S
O758        C765   1.293       .  A
O759       Ni762   1.990       .  S
O759        C764   1.293       .  A
O760       Ni762   1.992       .  S
O760        C763   1.293       .  A
Ni761      Ni762   2.340       .  S
C763        C887   1.504       .  S
C764        C863   1.503       .  S
C765        C940   1.505       .  S
C766        C844   1.505       .  S
O767       Ni775   1.992       .  S
O767        C777   1.293       .  A
O768       Ni775   1.990       .  S
O768        C778   1.293       .  A
O769       Ni775   1.991       .  S
O769        C779   1.293       .  A
O770       Ni775   1.987       .  S
O770        C780   1.293       .  A
O771       Ni776   1.855       .  S
O771        C780   1.268       .  A
O772       Ni776   1.851       .  S
O772        C779   1.268       .  A
O773       Ni776   1.856       .  S
O773        C778   1.269       .  A
O774       Ni776   1.856       .  S
O774        C777   1.269       .  A
Ni775      Ni776   2.347       .  S
C777        C916   1.506       .  S
C778        C868   1.504       .  S
C779        C983   1.504       .  S
C780        C839   1.501       .  S
O781       Ni789   1.853       .  S
O781        C791   1.268       .  A
O782       Ni789   1.853       .  S
O782        C792   1.268       .  A
O783       Ni789   1.853       .  S
O783        C793   1.268       .  A
O784       Ni789   1.856       .  S
O784        C794   1.269       .  A
O785       Ni790   1.989       .  S
O785        C794   1.293       .  A
O786       Ni790   1.993       .  S
O786        C793   1.293       .  A
O787       Ni790   1.992       .  S
O787        C792   1.293       .  A
O788       Ni790   1.990       .  S
O788        C791   1.293       .  A
Ni789      Ni790   2.344       .  S
C791        C842   1.502       .  S
C792        C962   1.505       .  S
C793        C914   1.507       .  S
C794        C890   1.503       .  S
O795       Ni803   1.855       .  S
O795        C805   1.268       .  A
O796       Ni803   1.851       .  S
O796        C806   1.268       .  A
O797       Ni803   1.854       .  S
O797        C807   1.268       .  A
O798       Ni803   1.855       .  S
O798        C808   1.268       .  A
O799       Ni804   1.991       .  S
O799        C808   1.293       .  A
O800       Ni804   1.989       .  S
O800        C807   1.293       .  A
O801       Ni804   1.992       .  S
O801        C806   1.293       .  A
O802       Ni804   1.988       .  S
O802        C805   1.293       .  A
Ni803      Ni804   2.348       .  S
C805        C935   1.502       .  S
C806        C959   1.505       .  S
C807        C892   1.503       .  S
C808       C1010   1.505       .  S
O809       Ni817   1.991       .  S
O809        C819   1.293       .  A
O810       Ni817   1.992       .  S
O810        C820   1.293       .  A
O811       Ni817   1.990       .  S
O811        C821   1.293       .  A
O812       Ni817   1.994       .  S
O812        C822   1.293       .  A
O813       Ni818   1.851       .  S
O813        C822   1.267       .  A
O814       Ni818   1.855       .  S
O814        C821   1.268       .  A
O815       Ni818   1.853       .  S
O815        C820   1.268       .  A
O816       Ni818   1.854       .  S
O816        C819   1.268       .  A
Ni817      Ni818   2.343       .  S
C819        C938   1.505       .  S
C820        C986   1.505       .  S
C821        C866   1.503       .  S
C822       C1007   1.506       .  S
O823       Ni831   1.994       .  S
O823        C833   1.293       .  A
O824       Ni831   1.993       .  S
O824        C834   1.293       .  A
O825       Ni831   1.991       .  S
O825        C835   1.293       .  A
O826       Ni831   1.992       .  S
O826        C836   1.293       .  A
O827       Ni832   1.854       .  S
O827        C836   1.268       .  A
O828       Ni832   1.853       .  S
O828        C835   1.268       .  A
O829       Ni832   1.856       .  S
O829        C834   1.269       .  A
O830       Ni832   1.856       .  S
O830        C833   1.269       .  A
Ni831      Ni832   2.351       .  S
C833        C988   1.508       .  S
C834        C964   1.508       .  S
C835        C911   1.505       .  S
C836       C1012   1.507       .  S
C837        C838   1.564       .  S
C837        C843   1.565       .  S
C837        C841   1.564       .  S
C837       C1127   1.477       .  S
C838        H845   1.086       .  S
C838        C839   1.366       .  D
C839        C840   1.531       .  S
C840        C844   1.532       .  S
C840        C842   1.532       .  S
C840        H846   1.095       .  S
C841        H847   1.084       .  S
C841        C842   1.366       .  D
C843        H848   1.087       .  S
C843        C844   1.367       .  D
C849        C850   1.564       .  S
C849        C855   1.564       .  S
C849        C853   1.565       .  S
C849       C1128   1.477       .  S
C850        H857   1.086       .  S
C850        C851   1.366       .  D
C851       C1096   1.501       .  S
C851        C852   1.531       .  S
C852        C856   1.531       .  S
C852        C854   1.532       .  S
C852        H858   1.095       .  S
C853        H859   1.085       .  S
C853        C854   1.367       .  D
C854       C1109   1.504       .  S
C855        H860   1.086       .  S
C855        C856   1.367       .  D
C856       C1083   1.503       .  S
C861        C862   1.564       .  S
C861        C867   1.565       .  S
C861        C865   1.564       .  S
C861       C1125   1.479       .  S
C862        H869   1.086       .  S
C862        C863   1.366       .  D
C863        C864   1.532       .  S
C864        C868   1.531       .  S
C864        C866   1.532       .  S
C864        H870   1.096       .  S
C865        H871   1.085       .  S
C865        C866   1.366       .  D
C867        H872   1.086       .  S
C867        C868   1.368       .  D
C873        C874   1.564       .  S
C873        C879   1.565       .  S
C873        C877   1.565       .  S
C873       C1126   1.479       .  S
C874        H881   1.084       .  S
C874        C875   1.366       .  D
C875       C1055   1.503       .  S
C875        C876   1.532       .  S
C876        C880   1.531       .  S
C876        C878   1.531       .  S
C876        H882   1.095       .  S
C877        H883   1.087       .  S
C877        C878   1.367       .  D
C878       C1097   1.505       .  S
C879        H884   1.086       .  S
C879        C880   1.367       .  D
C880       C1082   1.503       .  S
C885        C886   1.565       .  S
C885        C891   1.565       .  S
C885        C889   1.564       .  S
C885       C1124   1.479       .  S
C886        H893   1.086       .  S
C886        C887   1.367       .  D
C887        C888   1.532       .  S
C888        C892   1.531       .  S
C888        C890   1.530       .  S
C888        H894   1.095       .  S
C889        H895   1.085       .  S
C889        C890   1.366       .  D
C891        H896   1.086       .  S
C891        C892   1.367       .  D
C897        C898   1.564       .  S
C897        C903   1.566       .  S
C897        C901   1.565       .  S
C897       C1123   1.479       .  S
C898        H905   1.084       .  S
C898        C899   1.366       .  D
C899       C1112   1.503       .  S
C899        C900   1.531       .  S
C900        C904   1.531       .  S
C900        C902   1.531       .  S
C900        H906   1.095       .  S
C901        H907   1.086       .  S
C901        C902   1.367       .  D
C902       C1098   1.503       .  S
C903        H908   1.086       .  S
C903        C904   1.367       .  D
C904       C1042   1.505       .  S
C909        C910   1.566       .  S
C909        C915   1.566       .  S
C909        C913   1.566       .  S
C909       C1121   1.480       .  S
C910        H917   1.086       .  S
C910        C911   1.367       .  D
C911        C912   1.530       .  S
C912        C916   1.530       .  S
C912        C914   1.532       .  S
C912        H918   1.093       .  S
C913        H919   1.084       .  S
C913        C914   1.368       .  D
C915        H920   1.086       .  S
C915        C916   1.367       .  D
C921        C922   1.567       .  S
C921        C927   1.565       .  S
C921        C925   1.564       .  S
C921       C1122   1.480       .  S
C922        H929   1.084       .  S
C922        C923   1.368       .  D
C923       C1111   1.505       .  S
C923        C924   1.531       .  S
C924        C928   1.531       .  S
C924        C926   1.530       .  S
C924        H930   1.095       .  S
C925        H931   1.087       .  S
C925        C926   1.366       .  D
C926       C1068   1.502       .  S
C927        H932   1.086       .  S
C927        C928   1.366       .  D
C928       C1081   1.503       .  S
C933        C934   1.564       .  S
C933        C939   1.565       .  S
C933        C937   1.565       .  S
C933       C1119   1.481       .  S
C934        H941   1.086       .  S
C934        C935   1.366       .  D
C935        C936   1.531       .  S
C936        C940   1.532       .  S
C936        C938   1.532       .  S
C936        H942   1.095       .  S
C937        H943   1.084       .  S
C937        C938   1.367       .  D
C939        H944   1.086       .  S
C939        C940   1.367       .  D
C945        C946   1.566       .  S
C945        C951   1.564       .  S
C945        C949   1.565       .  S
C945       C1120   1.481       .  S
C946        H953   1.084       .  S
C946        C947   1.368       .  D
C947       C1053   1.504       .  S
C947        C948   1.531       .  S
C948        C952   1.531       .  S
C948        C950   1.531       .  S
C948        H954   1.095       .  S
C949        H955   1.086       .  S
C949        C950   1.367       .  D
C950       C1040   1.505       .  S
C951        H956   1.086       .  S
C951        C952   1.366       .  D
C952       C1095   1.503       .  S
C957        C958   1.566       .  S
C957        C963   1.568       .  S
C957        C961   1.566       .  S
C957       C1118   1.482       .  S
C958        H965   1.086       .  S
C958        C959   1.367       .  D
C959        C960   1.531       .  S
C960        C964   1.530       .  S
C960        C962   1.531       .  S
C960        H966   1.092       .  S
C961        H967   1.084       .  S
C961        C962   1.367       .  D
C963        H968   1.087       .  S
C963        C964   1.368       .  D
C969        C970   1.564       .  S
C969        C975   1.567       .  S
C969        C973   1.566       .  S
C969       C1117   1.482       .  S
C970        H977   1.086       .  S
C970        C971   1.366       .  D
C971       C1069   1.502       .  S
C971        C972   1.531       .  S
C972        C976   1.531       .  S
C972        C974   1.531       .  S
C972        H978   1.094       .  S
C973        H979   1.084       .  S
C973        C974   1.368       .  D
C974       C1110   1.506       .  S
C975        H980   1.086       .  S
C975        C976   1.368       .  D
C976       C1039   1.507       .  S
C981        C982   1.566       .  S
C981        C987   1.567       .  S
C981        C985   1.565       .  S
C981       C1116   1.480       .  S
C982        H989   1.086       .  S
C982        C983   1.367       .  D
C983        C984   1.531       .  S
C984        C988   1.530       .  S
C984        C986   1.531       .  S
C984        H990   1.093       .  S
C985        H991   1.084       .  S
C985        C986   1.366       .  D
C987        H992   1.086       .  S
C987        C988   1.368       .  D
C993        C994   1.564       .  S
C993        C999   1.567       .  S
C993        C997   1.564       .  S
C993       C1115   1.479       .  S
C994       H1001   1.086       .  S
C994        C995   1.366       .  D
C995       C1070   1.500       .  S
C995        C996   1.529       .  S
C996       C1000   1.531       .  S
C996        C998   1.531       .  S
C996       H1002   1.094       .  S
C997       H1003   1.085       .  S
C997        C998   1.366       .  D
C998       C1054   1.503       .  S
C999       H1004   1.086       .  S
C999       C1000   1.368       .  D
C1000      C1084   1.506       .  S
C1005      C1006   1.566       .  S
C1005      C1011   1.567       .  S
C1005      C1009   1.566       .  S
C1005      C1113   1.482       .  S
C1006      H1013   1.084       .  S
C1006      C1007   1.367       .  D
C1007      C1008   1.532       .  S
C1008      C1012   1.530       .  S
C1008      C1010   1.530       .  S
C1008      H1014   1.093       .  S
C1009      H1015   1.086       .  S
C1009      C1010   1.367       .  D
C1011      H1016   1.086       .  S
C1011      C1012   1.368       .  D
C1017      C1018   1.566       .  S
C1017      C1023   1.566       .  S
C1017      C1021   1.566       .  S
C1017      C1114   1.481       .  S
C1018      H1025   1.086       .  S
C1018      C1019   1.367       .  D
C1019      C1041   1.505       .  S
C1019      C1020   1.531       .  S
C1020      C1024   1.530       .  S
C1020      C1022   1.531       .  S
C1020      H1026   1.093       .  S
C1021      H1027   1.084       .  S
C1021      C1022   1.368       .  D
C1022      C1056   1.506       .  S
C1023      H1028   1.086       .  S
C1023      C1024   1.367       .  D
C1024      C1067   1.505       .  S
O1029     Ni1037   1.993   1_565  S
O1029      C1415   1.293       .  A
O1030      C1040   1.294       .  A
O1031      C1417   1.293       .  A
O1032     Ni1037   1.991   1_565  S
O1032      C1042   1.293       .  A
O1033     Ni1038   1.855       .  S
O1033      C1042   1.268       .  A
O1034      C1417   1.267       .  A
O1035      C1040   1.268       .  A
O1036     Ni1038   1.855       .  S
O1036      C1415   1.268       .  A
Ni1037    Ni1038   2.345   1_545  S
C1039      O1405   1.294   1_554  A
C1039      O1412   1.268       .  A
C1041      O1407   1.293   1_554  A
C1041      O1410   1.268   1_554  A
O1043     Ni1051   1.855   1_455  S
O1043      C1053   1.268       .  A
O1044     Ni2555   1.852       .  S
O1044      C1430   1.268       .  A
O1045     Ni2555   1.853       .  S
O1045      C1055   1.268       .  A
O1046     Ni1051   1.854   1_455  S
O1046      C1432   1.268       .  A
O1047     Ni1052   1.992   1_455  S
O1047      C1432   1.293       .  A
O1048     Ni2556   1.991       .  S
O1048      C1055   1.293       .  A
O1049     Ni2556   1.992       .  S
O1049      C1430   1.293       .  A
O1050     Ni1052   1.991   1_455  S
O1050      C1053   1.293       .  A
Ni1051     O2548   1.854       .  S
Ni1051     O2549   1.855       .  S
Ni1051    Ni1052   2.344       .  S
Ni1052     O2552   1.989       .  S
Ni1052     O2553   1.992       .  S
C1054      O1420   1.268   1_554  A
C1054      O1425   1.293   1_554  A
C1056      O1422   1.268       .  A
C1056      O1423   1.293   1_554  A
O1057     Ni1817   1.990   1_455  S
O1057      C1067   1.293       .  A
O1058     Ni1065   1.988       .  S
O1058      C1068   1.293       .  A
O1059     Ni2569   1.988   1_455  S
O1059      C1069   1.293       .  A
O1060      C1070   1.292       .  A
O1061      C1070   1.269       .  A
O1062     Ni2570   1.854   1_455  S
O1062      C1069   1.268       .  A
O1063     Ni1066   1.856       .  S
O1063      C1068   1.269       .  A
O1064     Ni1818   1.856   1_455  S
O1064      C1067   1.269       .  A
Ni1065     O1809   1.989   1_565  S
Ni1065     O2563   1.988       .  S
Ni1065    Ni1066   2.346       .  S
Ni1066     O2566   1.855       .  S
Ni1066     O1816   1.855   1_565  S
O1071     Ni1079   1.991       .  S
O1071      C1457   1.293       .  A
O1072      C1082   1.293       .  A
O1073     Ni1079   1.990       .  S
O1073      C1083   1.293       .  A
O1074      C1460   1.293       .  A
O1075      C1460   1.269       .  A
O1076     Ni1080   1.857       .  S
O1076      C1083   1.269       .  A
O1077      C1082   1.268       .  A
O1078     Ni1080   1.853       .  S
O1078      C1457   1.268       .  A
Ni1079    Ni1080   2.344       .  S
C1081      O1447   1.293   1_554  A
C1081      O1454   1.268   1_554  A
C1084      O1450   1.293   1_554  A
C1084      O1451   1.269       .  A
O1085      C1095   1.293       .  A
O1086     Ni2597   1.987   1_565  S
O1086      C1096   1.292       .  A
O1087     Ni1845   1.991       .  S
O1087      C1097   1.293       .  A
O1088     Ni1093   1.990   1_465  S
O1088      C1098   1.293       .  A
O1089     Ni1094   1.856   1_565  S
O1089      C1098   1.268       .  A
O1090     Ni1846   1.858       .  S
O1090      C1097   1.269       .  A
O1091     Ni2598   1.856       .  S
O1091      C1096   1.268       .  A
O1092      C1095   1.269       .  A
Ni1093     O2590   1.987   1_545  S
Ni1093     O1839   1.989       .  S
Ni1093    Ni1094   2.344   1_655  S
Ni1094     O1842   1.858   1_455  S
Ni1094     O2595   1.857   1_445  S
O1099     Ni1107   1.992       .  S
O1099      C1109   1.294       .  A
O1100     Ni2611   1.993   1_455  S
O1100      C1486   1.293       .  A
O1101     Ni1107   1.992       .  S
O1101      C1487   1.293       .  A
O1102     Ni2611   1.990   1_455  S
O1102      C1112   1.293       .  A
O1103     Ni2612   1.855   1_455  S
O1103      C1112   1.268       .  A
O1104     Ni1108   1.854       .  S
O1104      C1487   1.268       .  A
O1105     Ni2612   1.854   1_455  S
O1105      C1486   1.268       .  A
O1106     Ni1108   1.855       .  S
O1106      C1109   1.268       .  A
Ni1107     O2604   1.994       .  S
Ni1107     O2606   1.992       .  S
Ni1107    Ni1108   2.342       .  S
Ni1108     O2607   1.853       .  S
Ni1108     O2609   1.853       .  S
C1110      O1476   1.293   1_554  A
C1110      O1481   1.268   1_554  A
C1111      O1477   1.293   1_554  A
C1111      O1480   1.269       .  A
C1113      C1114   1.214       .  T
C1115      C1116   1.213       .  T
C1117      C1118   1.214       .  T
C1119      C1120   1.214       .  T
C1121      C1122   1.214       .  T
C1123      C1124   1.213       .  T
C1125      C1126   1.213       .  T
C1127      C1128   1.212       .  T
O1129     Ni1137   1.855       .  S
O1129      C1139   1.268       .  A
O1130     Ni1137   1.855       .  S
O1130      C1140   1.268       .  A
O1131     Ni1137   1.857       .  S
O1131      C1141   1.268       .  A
O1132     Ni1137   1.857       .  S
O1132      C1142   1.268       .  A
O1133     Ni1138   1.992       .  S
O1133      C1142   1.294       .  A
O1134     Ni1138   1.992       .  S
O1134      C1141   1.294       .  A
O1135     Ni1138   1.990       .  S
O1135      C1140   1.293       .  A
O1136     Ni1138   1.990       .  S
O1136      C1139   1.293       .  A
Ni1137    Ni1138   2.340       .  S
C1139      C1263   1.503       .  S
C1140      C1239   1.502       .  S
C1141      C1316   1.505       .  S
C1142      C1220   1.505       .  S
O1143     Ni1151   1.992       .  S
O1143      C1153   1.293       .  A
O1144     Ni1151   1.991       .  S
O1144      C1154   1.293       .  A
O1145     Ni1151   1.991       .  S
O1145      C1155   1.293       .  A
O1146     Ni1151   1.987       .  S
O1146      C1156   1.293       .  A
O1147     Ni1152   1.855       .  S
O1147      C1156   1.268       .  A
O1148     Ni1152   1.851       .  S
O1148      C1155   1.268       .  A
O1149     Ni1152   1.855       .  S
O1149      C1154   1.268       .  A
O1150     Ni1152   1.856       .  S
O1150      C1153   1.268       .  A
Ni1151    Ni1152   2.346       .  S
C1153      C1292   1.506       .  S
C1154      C1244   1.505       .  S
C1155      C1359   1.505       .  S
C1156      C1215   1.501       .  S
O1157     Ni1165   1.853       .  S
O1157      C1167   1.268       .  A
O1158     Ni1165   1.854       .  S
O1158      C1168   1.268       .  A
O1159     Ni1165   1.852       .  S
O1159      C1169   1.268       .  A
O1160     Ni1165   1.855       .  S
O1160      C1170   1.268       .  A
O1161     Ni1166   1.988       .  S
O1161      C1170   1.293       .  A
O1162     Ni1166   1.993       .  S
O1162      C1169   1.293       .  A
O1163     Ni1166   1.992       .  S
O1163      C1168   1.293       .  A
O1164     Ni1166   1.990       .  S
O1164      C1167   1.293       .  A
Ni1165    Ni1166   2.344       .  S
C1167      C1218   1.503       .  S
C1168      C1338   1.505       .  S
C1169      C1290   1.506       .  S
C1170      C1266   1.501       .  S
O1171     Ni1179   1.854       .  S
O1171      C1181   1.268       .  A
O1172     Ni1179   1.851       .  S
O1172      C1182   1.268       .  A
O1173     Ni1179   1.855       .  S
O1173      C1183   1.268       .  A
O1174     Ni1179   1.855       .  S
O1174      C1184   1.268       .  A
O1175     Ni1180   1.990       .  S
O1175      C1184   1.293       .  A
O1176     Ni1180   1.989       .  S
O1176      C1183   1.293       .  A
O1177     Ni1180   1.990       .  S
O1177      C1182   1.293       .  A
O1178     Ni1180   1.986       .  S
O1178      C1181   1.292       .  A
Ni1179    Ni1180   2.346       .  S
C1181      C1311   1.500       .  S
C1182      C1335   1.504       .  S
C1183      C1268   1.503       .  S
C1184      C1386   1.505       .  S
O1185     Ni1193   1.991       .  S
O1185      C1195   1.293       .  A
O1186     Ni1193   1.992       .  S
O1186      C1196   1.293       .  A
O1187     Ni1193   1.989       .  S
O1187      C1197   1.293       .  A
O1188     Ni1193   1.993       .  S
O1188      C1198   1.293       .  A
O1189     Ni1194   1.851       .  S
O1189      C1198   1.268       .  A
O1190     Ni1194   1.854       .  S
O1190      C1197   1.268       .  A
O1191     Ni1194   1.854       .  S
O1191      C1196   1.268       .  A
O1192     Ni1194   1.855       .  S
O1192      C1195   1.269       .  A
Ni1193    Ni1194   2.344       .  S
C1195      C1314   1.505       .  S
C1196      C1362   1.505       .  S
C1197      C1242   1.501       .  S
C1198      C1383   1.506       .  S
O1199     Ni1207   1.994       .  S
O1199      C1209   1.293       .  A
O1200     Ni1207   1.994       .  S
O1200      C1210   1.293       .  A
O1201     Ni1207   1.992       .  S
O1201      C1211   1.293       .  A
O1202     Ni1207   1.993       .  S
O1202      C1212   1.293       .  A
O1203     Ni1208   1.851       .  S
O1203      C1212   1.268       .  A
O1204     Ni1208   1.851       .  S
O1204      C1211   1.268       .  A
O1205     Ni1208   1.853       .  S
O1205      C1210   1.268       .  A
O1206     Ni1208   1.853       .  S
O1206      C1209   1.268       .  A
Ni1207    Ni1208   2.354       .  S
C1209      C1364   1.507       .  S
C1210      C1340   1.508       .  S
C1211      C1287   1.505       .  S
C1212      C1388   1.506       .  S
C1213      C1214   1.563       .  S
C1213      C1219   1.565       .  S
C1213      C1217   1.564       .  S
C1213      C1503   1.478       .  S
C1214      H1221   1.086       .  S
C1214      C1215   1.366       .  D
C1215      C1216   1.531       .  S
C1216      C1220   1.532       .  S
C1216      C1218   1.532       .  S
C1216      H1222   1.096       .  S
C1217      H1223   1.084       .  S
C1217      C1218   1.366       .  D
C1219      H1224   1.087       .  S
C1219      C1220   1.367       .  D
C1225      C1226   1.565       .  S
C1225      C1231   1.564       .  S
C1225      C1229   1.565       .  S
C1225      C1504   1.478       .  S
C1226      H1233   1.086       .  S
C1226      C1227   1.367       .  D
C1227      C1472   1.502       .  S
C1227      C1228   1.531       .  S
C1228      C1232   1.531       .  S
C1228      C1230   1.531       .  S
C1228      H1234   1.095       .  S
C1229      H1235   1.084       .  S
C1229      C1230   1.367       .  D
C1230      C1485   1.504       .  S
C1231      H1236   1.086       .  S
C1231      C1232   1.366       .  D
C1232      C1459   1.504       .  S
C1237      C1238   1.564       .  S
C1237      C1243   1.565       .  S
C1237      C1241   1.563       .  S
C1237      C1501   1.477       .  S
C1238      H1245   1.086       .  S
C1238      C1239   1.366       .  D
C1239      C1240   1.532       .  S
C1240      C1244   1.532       .  S
C1240      C1242   1.531       .  S
C1240      H1246   1.095       .  S
C1241      H1247   1.085       .  S
C1241      C1242   1.366       .  D
C1243      H1248   1.086       .  S
C1243      C1244   1.367       .  D
C1249      C1250   1.564       .  S
C1249      C1255   1.564       .  S
C1249      C1253   1.565       .  S
C1249      C1502   1.477       .  S
C1250      H1257   1.084       .  S
C1250      C1251   1.366       .  D
C1251      C1431   1.502       .  S
C1251      C1252   1.531       .  S
C1252      C1256   1.531       .  S
C1252      C1254   1.531       .  S
C1252      H1258   1.095       .  S
C1253      H1259   1.087       .  S
C1253      C1254   1.367       .  D
C1254      C1473   1.504       .  S
C1255      H1260   1.086       .  S
C1255      C1256   1.366       .  D
C1256      C1458   1.502       .  S
C1261      C1262   1.565       .  S
C1261      C1267   1.565       .  S
C1261      C1265   1.563       .  S
C1261      C1500   1.478       .  S
C1262      H1269   1.086       .  S
C1262      C1263   1.367       .  D
C1263      C1264   1.532       .  S
C1264      C1268   1.531       .  S
C1264      C1266   1.531       .  S
C1264      H1270   1.096       .  S
C1265      H1271   1.085       .  S
C1265      C1266   1.366       .  D
C1267      H1272   1.086       .  S
C1267      C1268   1.367       .  D
C1273      C1274   1.564       .  S
C1273      C1279   1.566       .  S
C1273      C1277   1.566       .  S
C1273      C1499   1.478       .  S
C1274      H1281   1.084       .  S
C1274      C1275   1.366       .  D
C1275      C1488   1.503       .  S
C1275      C1276   1.532       .  S
C1276      C1280   1.531       .  S
C1276      C1278   1.531       .  S
C1276      H1282   1.094       .  S
C1277      H1283   1.086       .  S
C1277      C1278   1.367       .  D
C1278      C1474   1.505       .  S
C1279      H1284   1.086       .  S
C1279      C1280   1.367       .  D
C1280      C1418   1.505       .  S
C1285      C1286   1.566       .  S
C1285      C1291   1.566       .  S
C1285      C1289   1.566       .  S
C1285      C1497   1.479       .  S
C1286      H1293   1.086       .  S
C1286      C1287   1.367       .  D
C1287      C1288   1.531       .  S
C1288      C1292   1.530       .  S
C1288      C1290   1.532       .  S
C1288      H1294   1.093       .  S
C1289      H1295   1.084       .  S
C1289      C1290   1.367       .  D
C1291      H1296   1.086       .  S
C1291      C1292   1.367       .  D
C1297      C1298   1.566       .  S
C1297      C1303   1.565       .  S
C1297      C1301   1.565       .  S
C1297      C1498   1.479       .  S
C1298      H1305   1.084       .  S
C1298      C1299   1.368       .  D
C1299      C1487   1.505       .  S
C1299      C1300   1.532       .  S
C1300      C1304   1.531       .  S
C1300      C1302   1.530       .  S
C1300      H1306   1.094       .  S
C1301      H1307   1.086       .  S
C1301      C1302   1.367       .  D
C1302      C1444   1.504       .  S
C1303      H1308   1.086       .  S
C1303      C1304   1.367       .  D
C1304      C1457   1.504       .  S
C1309      C1310   1.563       .  S
C1309      C1315   1.565       .  S
C1309      C1313   1.566       .  S
C1309      C1495   1.480       .  S
C1310      H1317   1.086       .  S
C1310      C1311   1.365       .  D
C1311      C1312   1.531       .  S
C1312      C1316   1.532       .  S
C1312      C1314   1.532       .  S
C1312      H1318   1.095       .  S
C1313      H1319   1.085       .  S
C1313      C1314   1.368       .  D
C1315      H1320   1.087       .  S
C1315      C1316   1.367       .  D
C1321      C1322   1.566       .  S
C1321      C1327   1.564       .  S
C1321      C1325   1.566       .  S
C1321      C1496   1.480       .  S
C1322      H1329   1.084       .  S
C1322      C1323   1.368       .  D
C1323      C1429   1.505       .  S
C1323      C1324   1.531       .  S
C1324      C1328   1.531       .  S
C1324      C1326   1.531       .  S
C1324      H1330   1.094       .  S
C1325      H1331   1.086       .  S
C1325      C1326   1.367       .  D
C1326      C1416   1.506       .  S
C1327      H1332   1.086       .  S
C1327      C1328   1.366       .  D
C1328      C1471   1.503       .  S
C1333      C1334   1.565       .  S
C1333      C1339   1.568       .  S
C1333      C1337   1.566       .  S
C1333      C1494   1.481       .  S
C1334      H1341   1.086       .  S
C1334      C1335   1.367       .  D
C1335      C1336   1.531       .  S
C1336      C1340   1.530       .  S
C1336      C1338   1.530       .  S
C1336      H1342   1.092       .  S
C1337      H1343   1.085       .  S
C1337      C1338   1.367       .  D
C1339      H1344   1.087       .  S
C1339      C1340   1.368       .  D
C1345      C1346   1.565       .  S
C1345      C1351   1.567       .  S
C1345      C1349   1.566       .  S
C1345      C1493   1.481       .  S
C1346      H1353   1.086       .  S
C1346      C1347   1.367       .  D
C1347      C1445   1.503       .  S
C1347      C1348   1.530       .  S
C1348      C1352   1.531       .  S
C1348      C1350   1.531       .  S
C1348      H1354   1.093       .  S
C1349      H1355   1.084       .  S
C1349      C1350   1.368       .  D
C1350      C1486   1.506       .  S
C1351      H1356   1.086       .  S
C1351      C1352   1.368       .  D
C1352      C1415   1.506       .  S
C1357      C1358   1.566       .  S
C1357      C1363   1.567       .  S
C1357      C1361   1.565       .  S
C1357      C1492   1.479       .  S
C1358      H1365   1.086       .  S
C1358      C1359   1.367       .  D
C1359      C1360   1.532       .  S
C1360      C1364   1.531       .  S
C1360      C1362   1.530       .  S
C1360      H1366   1.092       .  S
C1361      H1367   1.085       .  S
C1361      C1362   1.366       .  D
C1363      H1368   1.086       .  S
C1363      C1364   1.368       .  D
C1369      C1370   1.564       .  S
C1369      C1375   1.567       .  S
C1369      C1373   1.565       .  S
C1369      C1491   1.479       .  S
C1370      H1377   1.086       .  S
C1370      C1371   1.366       .  D
C1371      C1446   1.502       .  S
C1371      C1372   1.530       .  S
C1372      C1376   1.531       .  S
C1372      C1374   1.531       .  S
C1372      H1378   1.094       .  S
C1373      H1379   1.084       .  S
C1373      C1374   1.366       .  D
C1374      C1430   1.504       .  S
C1375      H1380   1.086       .  S
C1375      C1376   1.368       .  D
C1376      C1460   1.506       .  S
C1381      C1382   1.566       .  S
C1381      C1387   1.567       .  S
C1381      C1385   1.565       .  S
C1381      C1489   1.480       .  S
C1382      H1389   1.084       .  S
C1382      C1383   1.367       .  D
C1383      C1384   1.532       .  S
C1384      C1388   1.531       .  S
C1384      C1386   1.530       .  S
C1384      H1390   1.092       .  S
C1385      H1391   1.086       .  S
C1385      C1386   1.366       .  D
C1387      H1392   1.086       .  S
C1387      C1388   1.368       .  D
C1393      C1394   1.565       .  S
C1393      C1399   1.566       .  S
C1393      C1397   1.566       .  S
C1393      C1490   1.480       .  S
C1394      H1401   1.086       .  S
C1394      C1395   1.367       .  D
C1395      C1417   1.505       .  S
C1395      C1396   1.531       .  S
C1396      C1400   1.530       .  S
C1396      C1398   1.531       .  S
C1396      H1402   1.093       .  S
C1397      H1403   1.084       .  S
C1397      C1398   1.367       .  D
C1398      C1432   1.506       .  S
C1399      H1404   1.086       .  S
C1399      C1400   1.367       .  D
C1400      C1443   1.505       .  S
O1405     Ni1413   1.993   1_565  S
O1406      C1416   1.294       .  A
O1408     Ni1413   1.991   1_565  S
O1408      C1418   1.293       .  A
O1409     Ni1414   1.855   1_565  S
O1409      C1418   1.268       .  A
O1411      C1416   1.268       .  A
O1412     Ni1414   1.855   1_564  S
Ni1413    Ni1414   2.348       .  S
O1419     Ni1427   1.853   1_455  S
O1419      C1429   1.268       .  A
O1420     Ni2931   1.853       .  S
O1421     Ni2931   1.855       .  S
O1421      C1431   1.268       .  A
O1422     Ni1427   1.853   1_454  S
O1423     Ni1428   1.992   1_455  S
O1424     Ni2932   1.990       .  S
O1424      C1431   1.293       .  A
O1425     Ni2932   1.991       .  S
O1426     Ni1428   1.991   1_455  S
O1426      C1429   1.293       .  A
Ni1427     O2924   1.852       .  S
Ni1427     O2925   1.853       .  S
Ni1427    Ni1428   2.347       .  S
Ni1428     O2928   1.990       .  S
Ni1428     O2929   1.991       .  S
O1433     Ni2193   1.990   1_455  S
O1433      C1443   1.293       .  A
O1434     Ni1441   1.989       .  S
O1434      C1444   1.293       .  A
O1435     Ni2945   1.988   1_455  S
O1435      C1445   1.292       .  A
O1436      C1446   1.292       .  A
O1437      C1446   1.268       .  A
O1438     Ni2946   1.855   1_455  S
O1438      C1445   1.269       .  A
O1439     Ni1442   1.856       .  S
O1439      C1444   1.269       .  A
O1440     Ni2194   1.855   1_455  S
O1440      C1443   1.269       .  A
Ni1441     O2185   1.990   1_565  S
Ni1441     O2939   1.989       .  S
Ni1441    Ni1442   2.351       .  S
Ni1442     O2942   1.852       .  S
Ni1442     O2192   1.854   1_565  S
O1447     Ni1455   1.989       .  S
O1448      C1458   1.293       .  A
O1449     Ni1455   1.990       .  S
O1449      C1459   1.293       .  A
O1452     Ni1456   1.857       .  S
O1452      C1459   1.269       .  A
O1453      C1458   1.268       .  A
O1454     Ni1456   1.855       .  S
Ni1455    Ni1456   2.342       .  S
O1461      C1471   1.292       .  A
O1462     Ni2973   1.989   1_565  S
O1462      C1472   1.293       .  A
O1463     Ni2221   1.991       .  S
O1463      C1473   1.293       .  A
O1464     Ni1469   1.992   1_465  S
O1464      C1474   1.293       .  A
O1465     Ni1470   1.856   1_455  S
O1465      C1474   1.268       .  A
O1466     Ni2222   1.856       .  S
O1466      C1473   1.268       .  A
O1467     Ni2974   1.855       .  S
O1467      C1472   1.268       .  A
O1468      C1471   1.268       .  A
Ni1469     O2966   1.988   1_545  S
Ni1469     O2215   1.992       .  S
Ni1469    Ni1470   2.343   1_545  S
Ni1470     O2218   1.857   1_565  S
Ni1470     O2971   1.855       .  S
O1475     Ni1483   1.991       .  S
O1475      C1485   1.293       .  A
O1476     Ni2987   1.992       .  S
O1477     Ni1483   1.991       .  S
O1478     Ni2987   1.992       .  S
O1478      C1488   1.293       .  A
O1479     Ni2988   1.853       .  S
O1479      C1488   1.268       .  A
O1480     Ni1484   1.856   1_554  S
O1481     Ni2988   1.854       .  S
O1482     Ni1484   1.856       .  S
O1482      C1485   1.269       .  A
Ni1483     O2980   1.992       .  S
Ni1483     O2982   1.991       .  S
Ni1483    Ni1484   2.345       .  S
Ni1484     O2983   1.854       .  S
Ni1484     O2985   1.855       .  S
C1489      C1490   1.213       .  T
C1491      C1492   1.213       .  T
C1493      C1494   1.214       .  T
C1495      C1496   1.213       .  T
C1497      C1498   1.213       .  T
C1499      C1500   1.212       .  T
C1501      C1502   1.212       .  T
C1503      C1504   1.212       .  T
O1505     Ni1513   1.855       .  S
O1505      C1515   1.268       .  A
O1506     Ni1513   1.855       .  S
O1506      C1516   1.268       .  A
O1507     Ni1513   1.858       .  S
O1507      C1517   1.269       .  A
O1508     Ni1513   1.858       .  S
O1508      C1518   1.268       .  A
O1509     Ni1514   1.993       .  S
O1509      C1518   1.294       .  A
O1510     Ni1514   1.992       .  S
O1510      C1517   1.294       .  A
O1511     Ni1514   1.990       .  S
O1511      C1516   1.293       .  A
O1512     Ni1514   1.991       .  S
O1512      C1515   1.293       .  A
Ni1513    Ni1514   2.340       .  S
C1515      C1639   1.503       .  S
C1516      C1615   1.502       .  S
C1517      C1692   1.505       .  S
C1518      C1596   1.506       .  S
O1519     Ni1527   1.991       .  S
O1519      C1529   1.293       .  A
O1520     Ni1527   1.990       .  S
O1520      C1530   1.293       .  A
O1521     Ni1527   1.991       .  S
O1521      C1531   1.293       .  A
O1522     Ni1527   1.988       .  S
O1522      C1532   1.293       .  A
O1523     Ni1528   1.857       .  S
O1523      C1532   1.269       .  A
O1524     Ni1528   1.855       .  S
O1524      C1531   1.268       .  A
O1525     Ni1528   1.857       .  S
O1525      C1530   1.269       .  A
O1526     Ni1528   1.857       .  S
O1526      C1529   1.269       .  A
Ni1527    Ni1528   2.345       .  S
C1529      C1668   1.506       .  S
C1530      C1620   1.504       .  S
C1531      C1735   1.506       .  S
C1532      C1591   1.502       .  S
O1533     Ni1541   1.854       .  S
O1533      C1543   1.268       .  A
O1534     Ni1541   1.855       .  S
O1534      C1544   1.268       .  A
O1535     Ni1541   1.852       .  S
O1535      C1545   1.268       .  A
O1536     Ni1541   1.855       .  S
O1536      C1546   1.268       .  A
O1537     Ni1542   1.989       .  S
O1537      C1546   1.293       .  A
O1538     Ni1542   1.993       .  S
O1538      C1545   1.293       .  A
O1539     Ni1542   1.992       .  S
O1539      C1544   1.293       .  A
O1540     Ni1542   1.990       .  S
O1540      C1543   1.293       .  A
Ni1541    Ni1542   2.344       .  S
C1543      C1594   1.502       .  S
C1544      C1714   1.506       .  S
C1545      C1666   1.506       .  S
C1546      C1642   1.502       .  S
O1547     Ni1555   1.855       .  S
O1547      C1557   1.268       .  A
O1548     Ni1555   1.852       .  S
O1548      C1558   1.268       .  A
O1549     Ni1555   1.855       .  S
O1549      C1559   1.268       .  A
O1550     Ni1555   1.855       .  S
O1550      C1560   1.268       .  A
O1551     Ni1556   1.990       .  S
O1551      C1560   1.293       .  A
O1552     Ni1556   1.988       .  S
O1552      C1559   1.293       .  A
O1553     Ni1556   1.990       .  S
O1553      C1558   1.293       .  A
O1554     Ni1556   1.987       .  S
O1554      C1557   1.292       .  A
Ni1555    Ni1556   2.347       .  S
C1557      C1687   1.500       .  S
C1558      C1711   1.504       .  S
C1559      C1644   1.502       .  S
C1560      C1762   1.504       .  S
O1561     Ni1569   1.991       .  S
O1561      C1571   1.293       .  A
O1562     Ni1569   1.991       .  S
O1562      C1572   1.293       .  A
O1563     Ni1569   1.990       .  S
O1563      C1573   1.293       .  A
O1564     Ni1569   1.994       .  S
O1564      C1574   1.293       .  A
O1565     Ni1570   1.853       .  S
O1565      C1574   1.268       .  A
O1566     Ni1570   1.857       .  S
O1566      C1573   1.269       .  A
O1567     Ni1570   1.855       .  S
O1567      C1572   1.268       .  A
O1568     Ni1570   1.854       .  S
O1568      C1571   1.268       .  A
Ni1569    Ni1570   2.343       .  S
C1571      C1690   1.504       .  S
C1572      C1738   1.504       .  S
C1573      C1618   1.504       .  S
C1574      C1759   1.507       .  S
O1575     Ni1583   1.994       .  S
O1575      C1585   1.294       .  A
O1576     Ni1583   1.994       .  S
O1576      C1586   1.293       .  A
O1577     Ni1583   1.991       .  S
O1577      C1587   1.293       .  A
O1578     Ni1583   1.992       .  S
O1578      C1588   1.293       .  A
O1579     Ni1584   1.852       .  S
O1579      C1588   1.268       .  A
O1580     Ni1584   1.852       .  S
O1580      C1587   1.268       .  A
O1581     Ni1584   1.854       .  S
O1581      C1586   1.268       .  A
O1582     Ni1584   1.854       .  S
O1582      C1585   1.268       .  A
Ni1583    Ni1584   2.353       .  S
C1585      C1740   1.508       .  S
C1586      C1716   1.508       .  S
C1587      C1663   1.505       .  S
C1588      C1764   1.506       .  S
C1589      C1590   1.564       .  S
C1589      C1595   1.566       .  S
C1589      C1593   1.564       .  S
C1589      C1879   1.480       .  S
C1590      H1597   1.086       .  S
C1590      C1591   1.366       .  D
C1591      C1592   1.530       .  S
C1592      C1596   1.532       .  S
C1592      C1594   1.532       .  S
C1592      H1598   1.095       .  S
C1593      H1599   1.084       .  S
C1593      C1594   1.367       .  D
C1595      H1600   1.087       .  S
C1595      C1596   1.368       .  D
C1601      C1602   1.564       .  S
C1601      C1607   1.564       .  S
C1601      C1605   1.565       .  S
C1601      C1880   1.480       .  S
C1602      H1609   1.087       .  S
C1602      C1603   1.367       .  D
C1603      C1848   1.501       .  S
C1603      C1604   1.531       .  S
C1604      C1608   1.531       .  S
C1604      C1606   1.531       .  S
C1604      H1610   1.096       .  S
C1605      H1611   1.085       .  S
C1605      C1606   1.367       .  D
C1606      C1861   1.503       .  S
C1607      H1612   1.086       .  S
C1607      C1608   1.366       .  D
C1608      C1835   1.502       .  S
C1613      C1614   1.564       .  S
C1613      C1619   1.565       .  S
C1613      C1617   1.565       .  S
C1613      C1877   1.480       .  S
C1614      H1621   1.086       .  S
C1614      C1615   1.367       .  D
C1615      C1616   1.532       .  S
C1616      C1620   1.531       .  S
C1616      C1618   1.531       .  S
C1616      H1622   1.096       .  S
C1617      H1623   1.085       .  S
C1617      C1618   1.367       .  D
C1619      H1624   1.086       .  S
C1619      C1620   1.367       .  D
C1625      C1626   1.564       .  S
C1625      C1631   1.565       .  S
C1625      C1629   1.565       .  S
C1625      C1878   1.480       .  S
C1626      H1633   1.084       .  S
C1626      C1627   1.367       .  D
C1627      C1807   1.502       .  S
C1627      C1628   1.531       .  S
C1628      C1632   1.531       .  S
C1628      C1630   1.531       .  S
C1628      H1634   1.096       .  S
C1629      H1635   1.087       .  S
C1629      C1630   1.367       .  D
C1630      C1849   1.503       .  S
C1631      H1636   1.086       .  S
C1631      C1632   1.367       .  D
C1632      C1834   1.502       .  S
C1637      C1638   1.565       .  S
C1637      C1643   1.564       .  S
C1637      C1641   1.563       .  S
C1637      C1876   1.477       .  S
C1638      H1645   1.086       .  S
C1638      C1639   1.367       .  D
C1639      C1640   1.532       .  S
C1640      C1644   1.531       .  S
C1640      C1642   1.531       .  S
C1640      H1646   1.095       .  S
C1641      H1647   1.085       .  S
C1641      C1642   1.366       .  D
C1643      H1648   1.086       .  S
C1643      C1644   1.367       .  D
C1649      C1650   1.564       .  S
C1649      C1655   1.565       .  S
C1649      C1653   1.566       .  S
C1649      C1875   1.478       .  S
C1650      H1657   1.084       .  S
C1650      C1651   1.365       .  D
C1651      C1864   1.504       .  S
C1651      C1652   1.532       .  S
C1652      C1656   1.532       .  S
C1652      C1654   1.531       .  S
C1652      H1658   1.094       .  S
C1653      H1659   1.086       .  S
C1653      C1654   1.367       .  D
C1654      C1850   1.505       .  S
C1655      H1660   1.086       .  S
C1655      C1656   1.367       .  D
C1656      C1794   1.505       .  S
C1661      C1662   1.566       .  S
C1661      C1667   1.566       .  S
C1661      C1665   1.566       .  S
C1661      C1873   1.481       .  S
C1662      H1669   1.086       .  S
C1662      C1663   1.367       .  D
C1663      C1664   1.531       .  S
C1664      C1668   1.530       .  S
C1664      C1666   1.532       .  S
C1664      H1670   1.093       .  S
C1665      H1671   1.084       .  S
C1665      C1666   1.368       .  D
C1667      H1672   1.086       .  S
C1667      C1668   1.367       .  D
C1673      C1674   1.566       .  S
C1673      C1679   1.565       .  S
C1673      C1677   1.565       .  S
C1673      C1874   1.481       .  S
C1674      H1681   1.084       .  S
C1674      C1675   1.368       .  D
C1675      C1863   1.505       .  S
C1675      C1676   1.531       .  S
C1676      C1680   1.530       .  S
C1676      C1678   1.530       .  S
C1676      H1682   1.094       .  S
C1677      H1683   1.087       .  S
C1677      C1678   1.366       .  D
C1678      C1820   1.503       .  S
C1679      H1684   1.086       .  S
C1679      C1680   1.367       .  D
C1680      C1833   1.503       .  S
C1685      C1686   1.563       .  S
C1685      C1691   1.566       .  S
C1685      C1689   1.565       .  S
C1685      C1871   1.480       .  S
C1686      H1693   1.086       .  S
C1686      C1687   1.366       .  D
C1687      C1688   1.531       .  S
C1688      C1692   1.531       .  S
C1688      C1690   1.532       .  S
C1688      H1694   1.095       .  S
C1689      H1695   1.084       .  S
C1689      C1690   1.367       .  D
C1691      H1696   1.087       .  S
C1691      C1692   1.367       .  D
C1697      C1698   1.566       .  S
C1697      C1703   1.565       .  S
C1697      C1701   1.566       .  S
C1697      C1872   1.480       .  S
C1698      H1705   1.084       .  S
C1698      C1699   1.367       .  D
C1699      C1805   1.505       .  S
C1699      C1700   1.531       .  S
C1700      C1704   1.531       .  S
C1700      C1702   1.532       .  S
C1700      H1706   1.094       .  S
C1701      H1707   1.086       .  S
C1701      C1702   1.367       .  D
C1702      C1792   1.506       .  S
C1703      H1708   1.086       .  S
C1703      C1704   1.367       .  D
C1704      C1847   1.504       .  S
C1709      C1710   1.565       .  S
C1709      C1715   1.568       .  S
C1709      C1713   1.567       .  S
C1709      C1870   1.482       .  S
C1710      H1717   1.086       .  S
C1710      C1711   1.367       .  D
C1711      C1712   1.531       .  S
C1712      C1716   1.530       .  S
C1712      C1714   1.530       .  S
C1712      H1718   1.093       .  S
C1713      H1719   1.085       .  S
C1713      C1714   1.368       .  D
C1715      H1720   1.087       .  S
C1715      C1716   1.368       .  D
C1721      C1722   1.565       .  S
C1721      C1727   1.567       .  S
C1721      C1725   1.567       .  S
C1721      C1869   1.482       .  S
C1722      H1729   1.086       .  S
C1722      C1723   1.367       .  D
C1723      C1821   1.503       .  S
C1723      C1724   1.529       .  S
C1724      C1728   1.531       .  S
C1724      C1726   1.531       .  S
C1724      H1730   1.093       .  S
C1725      H1731   1.084       .  S
C1725      C1726   1.368       .  D
C1726      C1862   1.506       .  S
C1727      H1732   1.086       .  S
C1727      C1728   1.368       .  D
C1728      C1791   1.507       .  S
C1733      C1734   1.566       .  S
C1733      C1739   1.567       .  S
C1733      C1737   1.565       .  S
C1733      C1868   1.481       .  S
C1734      H1741   1.086       .  S
C1734      C1735   1.368       .  D
C1735      C1736   1.531       .  S
C1736      C1740   1.531       .  S
C1736      C1738   1.531       .  S
C1736      H1742   1.093       .  S
C1737      H1743   1.084       .  S
C1737      C1738   1.367       .  D
C1739      H1744   1.086       .  S
C1739      C1740   1.368       .  D
C1745      C1746   1.564       .  S
C1745      C1751   1.567       .  S
C1745      C1749   1.565       .  S
C1745      C1867   1.481       .  S
C1746      H1753   1.086       .  S
C1746      C1747   1.366       .  D
C1747      C1822   1.501       .  S
C1747      C1748   1.530       .  S
C1748      C1752   1.530       .  S
C1748      C1750   1.531       .  S
C1748      H1754   1.094       .  S
C1749      H1755   1.085       .  S
C1749      C1750   1.367       .  D
C1750      C1806   1.505       .  S
C1751      H1756   1.086       .  S
C1751      C1752   1.369       .  D
C1752      C1836   1.507       .  S
C1757      C1758   1.567       .  S
C1757      C1763   1.567       .  S
C1757      C1761   1.565       .  S
C1757      C1865   1.481       .  S
C1758      H1765   1.084       .  S
C1758      C1759   1.368       .  D
C1759      C1760   1.531       .  S
C1760      C1764   1.531       .  S
C1760      C1762   1.530       .  S
C1760      H1766   1.093       .  S
C1761      H1767   1.086       .  S
C1761      C1762   1.366       .  D
C1763      H1768   1.086       .  S
C1763      C1764   1.368       .  D
C1769      C1770   1.566       .  S
C1769      C1775   1.566       .  S
C1769      C1773   1.566       .  S
C1769      C1866   1.481       .  S
C1770      H1777   1.086       .  S
C1770      C1771   1.367       .  D
C1771      C1793   1.505       .  S
C1771      C1772   1.531       .  S
C1772      C1776   1.530       .  S
C1772      C1774   1.531       .  S
C1772      H1778   1.093       .  S
C1773      H1779   1.084       .  S
C1773      C1774   1.367       .  D
C1774      C1808   1.505       .  S
C1775      H1780   1.087       .  S
C1775      C1776   1.367       .  D
C1776      C1819   1.504       .  S
O1781     Ni1789   1.994       .  S
O1781      C2167   1.294       .  A
O1782     Ni2541   1.994   1_545  S
O1782      C1792   1.294       .  A
O1783     Ni2541   1.994   1_545  S
O1783      C2169   1.293       .  A
O1784     Ni1789   1.993       .  S
O1784      C1794   1.293       .  A
O1785     Ni1790   1.850       .  S
O1785      C1794   1.267       .  A
O1786     Ni2542   1.849   1_545  S
O1786      C2169   1.267       .  A
O1787     Ni2542   1.852   1_545  S
O1787      C1792   1.267       .  A
O1788     Ni1790   1.851       .  S
O1788      C2167   1.267       .  A
Ni1789     O2534   1.995       .  S
Ni1789     O2535   1.994       .  S
Ni1789    Ni1790   2.352       .  S
Ni1790     O2538   1.849       .  S
Ni1790     O2539   1.851       .  S
C1791      O2157   1.294   1_554  A
C1791      O2164   1.268       .  A
C1793      O2159   1.293   1_554  A
C1793      O2162   1.268   1_554  A
O1795     Ni1803   1.854       .  S
O1795      C1805   1.268       .  A
O1796      C2182   1.268       .  A
O1797      C1807   1.269       .  A
O1798     Ni1803   1.853       .  S
O1798      C2184   1.268       .  A
O1799     Ni1804   1.993       .  S
O1799      C2184   1.293       .  A
O1800      C1807   1.293       .  A
O1801      C2182   1.293       .  A
O1802     Ni1804   1.991       .  S
O1802      C1805   1.293       .  A
Ni1803    Ni1804   2.343       .  S
C1806      O2172   1.268   1_554  A
C1806      O2177   1.293   1_554  A
C1808      O2174   1.268       .  A
C1808      O2175   1.293   1_554  A
O1809      C1819   1.293       .  A
O1810     Ni1817   1.989       .  S
O1810      C1820   1.293       .  A
O1811      C1821   1.292       .  A
O1812     Ni2569   1.987   1_545  S
O1812      C1822   1.292       .  A
O1813     Ni2570   1.854   1_545  S
O1813      C1822   1.268       .  A
O1814      C1821   1.269       .  A
O1815     Ni1818   1.857       .  S
O1815      C1820   1.269       .  A
O1816      C1819   1.269       .  A
Ni1817     O2564   1.986       .  S
Ni1817    Ni1818   2.347       .  S
Ni1818     O2565   1.854       .  S
O1823     Ni1831   1.990       .  S
O1823      C2209   1.293       .  A
O1824     Ni2583   1.988   1_545  S
O1824      C1834   1.293       .  A
O1825     Ni1831   1.988       .  S
O1825      C1835   1.293       .  A
O1826     Ni2583   1.991   1_545  S
O1826      C2212   1.293       .  A
O1827     Ni2584   1.858   1_545  S
O1827      C2212   1.269       .  A
O1828     Ni1832   1.858       .  S
O1828      C1835   1.269       .  A
O1829     Ni2584   1.857   1_545  S
O1829      C1834   1.269       .  A
O1830     Ni1832   1.856       .  S
O1830      C2209   1.268       .  A
Ni1831     O2576   1.987       .  S
Ni1831     O2578   1.990       .  S
Ni1831    Ni1832   2.341       .  S
Ni1832     O2579   1.858       .  S
Ni1832     O2581   1.857       .  S
C1833      O2199   1.293   1_554  A
C1833      O2206   1.268   1_554  A
C1836      O2202   1.293   1_554  A
C1836      O2203   1.269       .  A
O1837     Ni2597   1.989       .  S
O1837      C1847   1.293       .  A
O1838      C1848   1.292       .  A
O1839      C1849   1.293       .  A
O1840     Ni1845   1.991       .  S
O1840      C1850   1.293       .  A
O1841     Ni1846   1.857       .  S
O1841      C1850   1.269       .  A
O1842      C1849   1.269       .  A
O1843      C1848   1.269       .  A
O1844     Ni2598   1.855   1_545  S
O1844      C1847   1.268       .  A
Ni1845     O2589   1.989       .  S
Ni1845    Ni1846   2.344       .  S
Ni1846     O2596   1.854       .  S
O1851     Ni1859   1.990   1_655  S
O1851      C1861   1.293       .  A
O1852      C2238   1.293       .  A
O1853     Ni1859   1.990   1_655  S
O1853      C2239   1.293       .  A
O1854      C1864   1.293       .  A
O1855      C1864   1.268       .  A
O1856     Ni1860   1.856   1_655  S
O1856      C2239   1.269       .  A
O1857      C2238   1.268       .  A
O1858     Ni1860   1.857   1_655  S
O1858      C1861   1.269       .  A
Ni1859    Ni1860   2.343       .  S
C1862      O2228   1.293   1_554  A
C1862      O2233   1.268   1_554  A
C1863      O2229   1.293   1_554  A
C1863      O2232   1.268       .  A
C1865      C1866   1.214       .  T
C1867      C1868   1.214       .  T
C1869      C1870   1.215       .  T
C1871      C1872   1.213       .  T
C1873      C1874   1.214       .  T
C1875      C1876   1.212       .  T
C1877      C1878   1.214       .  T
C1879      C1880   1.213       .  T
O1881     Ni1889   1.855       .  S
O1881      C1891   1.268       .  A
O1882     Ni1889   1.856       .  S
O1882      C1892   1.268       .  A
O1883     Ni1889   1.858       .  S
O1883      C1893   1.269       .  A
O1884     Ni1889   1.857       .  S
O1884      C1894   1.268       .  A
O1885     Ni1890   1.992       .  S
O1885      C1894   1.294       .  A
O1886     Ni1890   1.991       .  S
O1886      C1893   1.293       .  A
O1887     Ni1890   1.989       .  S
O1887      C1892   1.293       .  A
O1888     Ni1890   1.990       .  S
O1888      C1891   1.293       .  A
Ni1889    Ni1890   2.341       .  S
C1891      C2015   1.503       .  S
C1892      C1991   1.502       .  S
C1893      C2068   1.504       .  S
C1894      C1972   1.504       .  S
O1895     Ni1903   1.991       .  S
O1895      C1905   1.293       .  A
O1896     Ni1903   1.990       .  S
O1896      C1906   1.293       .  A
O1897     Ni1903   1.990       .  S
O1897      C1907   1.293       .  A
O1898     Ni1903   1.987       .  S
O1898      C1908   1.292       .  A
O1899     Ni1904   1.857       .  S
O1899      C1908   1.269       .  A
O1900     Ni1904   1.854       .  S
O1900      C1907   1.268       .  A
O1901     Ni1904   1.858       .  S
O1901      C1906   1.269       .  A
O1902     Ni1904   1.858       .  S
O1902      C1905   1.269       .  A
Ni1903    Ni1904   2.343       .  S
C1905      C2044   1.505       .  S
C1906      C1996   1.504       .  S
C1907      C2111   1.504       .  S
C1908      C1967   1.501       .  S
O1909     Ni1917   1.854       .  S
O1909      C1919   1.268       .  A
O1910     Ni1917   1.855       .  S
O1910      C1920   1.268       .  A
O1911     Ni1917   1.854       .  S
O1911      C1921   1.268       .  A
O1912     Ni1917   1.856       .  S
O1912      C1922   1.269       .  A
O1913     Ni1918   1.988       .  S
O1913      C1922   1.293       .  A
O1914     Ni1918   1.992       .  S
O1914      C1921   1.293       .  A
O1915     Ni1918   1.991       .  S
O1915      C1920   1.293       .  A
O1916     Ni1918   1.989       .  S
O1916      C1919   1.293       .  A
Ni1917    Ni1918   2.344       .  S
C1919      C1970   1.502       .  S
C1920      C2090   1.505       .  S
C1921      C2042   1.506       .  S
C1922      C2018   1.502       .  S
O1923     Ni1931   1.853       .  S
O1923      C1933   1.268       .  A
O1924     Ni1931   1.850       .  S
O1924      C1934   1.267       .  A
O1925     Ni1931   1.854       .  S
O1925      C1935   1.268       .  A
O1926     Ni1931   1.854       .  S
O1926      C1936   1.268       .  A
O1927     Ni1932   1.990       .  S
O1927      C1936   1.293       .  A
O1928     Ni1932   1.990       .  S
O1928      C1935   1.293       .  A
O1929     Ni1932   1.991       .  S
O1929      C1934   1.293       .  A
O1930     Ni1932   1.987       .  S
O1930      C1933   1.293       .  A
Ni1931    Ni1932   2.347       .  S
C1933      C2063   1.501       .  S
C1934      C2087   1.504       .  S
C1935      C2020   1.503       .  S
C1936      C2138   1.504       .  S
O1937     Ni1945   1.991       .  S
O1937      C1947   1.293       .  A
O1938     Ni1945   1.990       .  S
O1938      C1948   1.293       .  A
O1939     Ni1945   1.990       .  S
O1939      C1949   1.293       .  A
O1940     Ni1945   1.993       .  S
O1940      C1950   1.293       .  A
O1941     Ni1946   1.853       .  S
O1941      C1950   1.268       .  A
O1942     Ni1946   1.856       .  S
O1942      C1949   1.268       .  A
O1943     Ni1946   1.855       .  S
O1943      C1948   1.268       .  A
O1944     Ni1946   1.856       .  S
O1944      C1947   1.269       .  A
Ni1945    Ni1946   2.342       .  S
C1947      C2066   1.505       .  S
C1948      C2114   1.504       .  S
C1949      C1994   1.502       .  S
C1950      C2135   1.506       .  S
O1951     Ni1959   1.992       .  S
O1951      C1961   1.293       .  A
O1952     Ni1959   1.992       .  S
O1952      C1962   1.293       .  A
O1953     Ni1959   1.990       .  S
O1953      C1963   1.293       .  A
O1954     Ni1959   1.991       .  S
O1954      C1964   1.293       .  A
O1955     Ni1960   1.854       .  S
O1955      C1964   1.268       .  A
O1956     Ni1960   1.854       .  S
O1956      C1963   1.268       .  A
O1957     Ni1960   1.855       .  S
O1957      C1962   1.269       .  A
O1958     Ni1960   1.856       .  S
O1958      C1961   1.269       .  A
Ni1959    Ni1960   2.352       .  S
C1961      C2116   1.506       .  S
C1962      C2092   1.507       .  S
C1963      C2039   1.504       .  S
C1964      C2140   1.506       .  S
C1965      C1966   1.563       .  S
C1965      C1971   1.565       .  S
C1965      C1969   1.564       .  S
C1965      C2255   1.478       .  S
C1966      H1973   1.086       .  S
C1966      C1967   1.366       .  D
C1967      C1968   1.530       .  S
C1968      C1972   1.532       .  S
C1968      C1970   1.531       .  S
C1968      H1974   1.096       .  S
C1969      H1975   1.084       .  S
C1969      C1970   1.366       .  D
C1971      H1976   1.087       .  S
C1971      C1972   1.367       .  D
C1977      C1978   1.564       .  S
C1977      C1983   1.565       .  S
C1977      C1981   1.565       .  S
C1977      C2256   1.478       .  S
C1978      H1985   1.086       .  S
C1978      C1979   1.366       .  D
C1979      C2224   1.501       .  S
C1979      C1980   1.531       .  S
C1980      C1984   1.531       .  S
C1980      C1982   1.532       .  S
C1980      H1986   1.095       .  S
C1981      H1987   1.085       .  S
C1981      C1982   1.367       .  D
C1982      C2237   1.504       .  S
C1983      H1988   1.086       .  S
C1983      C1984   1.366       .  D
C1984      C2211   1.504       .  S
C1989      C1990   1.564       .  S
C1989      C1995   1.565       .  S
C1989      C1993   1.564       .  S
C1989      C2253   1.480       .  S
C1990      H1997   1.086       .  S
C1990      C1991   1.366       .  D
C1991      C1992   1.532       .  S
C1992      C1996   1.531       .  S
C1992      C1994   1.532       .  S
C1992      H1998   1.096       .  S
C1993      H1999   1.085       .  S
C1993      C1994   1.366       .  D
C1995      H2000   1.086       .  S
C1995      C1996   1.368       .  D
C2001      C2002   1.564       .  S
C2001      C2007   1.566       .  S
C2001      C2005   1.565       .  S
C2001      C2254   1.480       .  S
C2002      H2009   1.084       .  S
C2002      C2003   1.367       .  D
C2003      C2183   1.503       .  S
C2003      C2004   1.531       .  S
C2004      C2008   1.530       .  S
C2004      C2006   1.531       .  S
C2004      H2010   1.095       .  S
C2005      H2011   1.087       .  S
C2005      C2006   1.367       .  D
C2006      C2225   1.505       .  S
C2007      H2012   1.086       .  S
C2007      C2008   1.367       .  D
C2008      C2210   1.504       .  S
C2013      C2014   1.565       .  S
C2013      C2019   1.565       .  S
C2013      C2017   1.564       .  S
C2013      C2252   1.478       .  S
C2014      H2021   1.086       .  S
C2014      C2015   1.367       .  D
C2015      C2016   1.532       .  S
C2016      C2020   1.531       .  S
C2016      C2018   1.530       .  S
C2016      H2022   1.095       .  S
C2017      H2023   1.085       .  S
C2017      C2018   1.366       .  D
C2019      H2024   1.086       .  S
C2019      C2020   1.367       .  D
C2025      C2026   1.564       .  S
C2025      C2031   1.566       .  S
C2025      C2029   1.565       .  S
C2025      C2251   1.478       .  S
C2026      H2033   1.084       .  S
C2026      C2027   1.366       .  D
C2027      C2240   1.504       .  S
C2027      C2028   1.531       .  S
C2028      C2032   1.531       .  S
C2028      C2030   1.532       .  S
C2028      H2034   1.094       .  S
C2029      H2035   1.086       .  S
C2029      C2030   1.367       .  D
C2030      C2226   1.505       .  S
C2031      H2036   1.086       .  S
C2031      C2032   1.367       .  D
C2032      C2170   1.505       .  S
C2037      C2038   1.565       .  S
C2037      C2043   1.566       .  S
C2037      C2041   1.567       .  S
C2037      C2249   1.481       .  S
C2038      H2045   1.086       .  S
C2038      C2039   1.367       .  D
C2039      C2040   1.530       .  S
C2040      C2044   1.530       .  S
C2040      C2042   1.532       .  S
C2040      H2046   1.093       .  S
C2041      H2047   1.084       .  S
C2041      C2042   1.368       .  D
C2043      H2048   1.086       .  S
C2043      C2044   1.367       .  D
C2049      C2050   1.567       .  S
C2049      C2055   1.565       .  S
C2049      C2053   1.565       .  S
C2049      C2250   1.481       .  S
C2050      H2057   1.084       .  S
C2050      C2051   1.368       .  D
C2051      C2239   1.505       .  S
C2051      C2052   1.531       .  S
C2052      C2056   1.531       .  S
C2052      C2054   1.530       .  S
C2052      H2058   1.095       .  S
C2053      H2059   1.087       .  S
C2053      C2054   1.367       .  D
C2054      C2196   1.503       .  S
C2055      H2060   1.086       .  S
C2055      C2056   1.366       .  D
C2056      C2209   1.503       .  S
C2061      C2062   1.563       .  S
C2061      C2067   1.565       .  S
C2061      C2065   1.565       .  S
C2061      C2247   1.480       .  S
C2062      H2069   1.086       .  S
C2062      C2063   1.366       .  D
C2063      C2064   1.531       .  S
C2064      C2068   1.531       .  S
C2064      C2066   1.532       .  S
C2064      H2070   1.096       .  S
C2065      H2071   1.084       .  S
C2065      C2066   1.368       .  D
C2067      H2072   1.087       .  S
C2067      C2068   1.367       .  D
C2073      C2074   1.566       .  S
C2073      C2079   1.565       .  S
C2073      C2077   1.565       .  S
C2073      C2248   1.481       .  S
C2074      H2081   1.084       .  S
C2074      C2075   1.368       .  D
C2075      C2181   1.505       .  S
C2075      C2076   1.531       .  S
C2076      C2080   1.531       .  S
C2076      C2078   1.532       .  S
C2076      H2082   1.094       .  S
C2077      H2083   1.086       .  S
C2077      C2078   1.367       .  D
C2078      C2168   1.506       .  S
C2079      H2084   1.086       .  S
C2079      C2080   1.367       .  D
C2080      C2223   1.504       .  S
C2085      C2086   1.565       .  S
C2085      C2091   1.567       .  S
C2085      C2089   1.566       .  S
C2085      C2246   1.480       .  S
C2086      H2093   1.086       .  S
C2086      C2087   1.367       .  D
C2087      C2088   1.532       .  S
C2088      C2092   1.530       .  S
C2088      C2090   1.530       .  S
C2088      H2094   1.093       .  S
C2089      H2095   1.084       .  S
C2089      C2090   1.367       .  D
C2091      H2096   1.087       .  S
C2091      C2092   1.368       .  D
C2097      C2098   1.565       .  S
C2097      C2103   1.567       .  S
C2097      C2101   1.567       .  S
C2097      C2245   1.480       .  S
C2098      H2105   1.086       .  S
C2098      C2099   1.366       .  D
C2099      C2197   1.504       .  S
C2099      C2100   1.531       .  S
C2100      C2104   1.532       .  S
C2100      C2102   1.531       .  S
C2100      H2106   1.093       .  S
C2101      H2107   1.084       .  S
C2101      C2102   1.367       .  D
C2102      C2238   1.507       .  S
C2103      H2108   1.086       .  S
C2103      C2104   1.368       .  D
C2104      C2167   1.507       .  S
C2109      C2110   1.566       .  S
C2109      C2115   1.567       .  S
C2109      C2113   1.565       .  S
C2109      C2244   1.480       .  S
C2110      H2117   1.086       .  S
C2110      C2111   1.367       .  D
C2111      C2112   1.531       .  S
C2112      C2116   1.530       .  S
C2112      C2114   1.531       .  S
C2112      H2118   1.094       .  S
C2113      H2119   1.085       .  S
C2113      C2114   1.366       .  D
C2115      H2120   1.086       .  S
C2115      C2116   1.368       .  D
C2121      C2122   1.564       .  S
C2121      C2127   1.567       .  S
C2121      C2125   1.565       .  S
C2121      C2243   1.480       .  S
C2122      H2129   1.087       .  S
C2122      C2123   1.367       .  D
C2123      C2198   1.501       .  S
C2123      C2124   1.530       .  S
C2124      C2128   1.530       .  S
C2124      C2126   1.531       .  S
C2124      H2130   1.094       .  S
C2125      H2131   1.085       .  S
C2125      C2126   1.366       .  D
C2126      C2182   1.505       .  S
C2127      H2132   1.086       .  S
C2127      C2128   1.368       .  D
C2128      C2212   1.506       .  S
C2133      C2134   1.566       .  S
C2133      C2139   1.566       .  S
C2133      C2137   1.565       .  S
C2133      C2241   1.480       .  S
C2134      H2141   1.084       .  S
C2134      C2135   1.367       .  D
C2135      C2136   1.532       .  S
C2136      C2140   1.530       .  S
C2136      C2138   1.530       .  S
C2136      H2142   1.093       .  S
C2137      H2143   1.086       .  S
C2137      C2138   1.366       .  D
C2139      H2144   1.086       .  S
C2139      C2140   1.368       .  D
C2145      C2146   1.566       .  S
C2145      C2151   1.567       .  S
C2145      C2149   1.566       .  S
C2145      C2242   1.480       .  S
C2146      H2153   1.086       .  S
C2146      C2147   1.367       .  D
C2147      C2169   1.506       .  S
C2147      C2148   1.532       .  S
C2148      C2152   1.530       .  S
C2148      C2150   1.531       .  S
C2148      H2154   1.092       .  S
C2149      H2155   1.084       .  S
C2149      C2150   1.367       .  D
C2150      C2184   1.507       .  S
C2151      H2156   1.086       .  S
C2151      C2152   1.368       .  D
C2152      C2195   1.505       .  S
O2157     Ni2165   1.994       .  S
O2158     Ni2917   1.993       .  S
O2158      C2168   1.294       .  A
O2159     Ni2917   1.992       .  S
O2160     Ni2165   1.992       .  S
O2160      C2170   1.293       .  A
O2161     Ni2166   1.854       .  S
O2161      C2170   1.268       .  A
O2162     Ni2918   1.852       .  S
O2163     Ni2918   1.854       .  S
O2163      C2168   1.268       .  A
O2164     Ni2166   1.854   1_554  S
Ni2165     O2910   1.993       .  S
Ni2165     O2911   1.992       .  S
Ni2165    Ni2166   2.345       .  S
Ni2166     O2914   1.852       .  S
Ni2166     O2915   1.855       .  S
O2171     Ni2179   1.855       .  S
O2171      C2181   1.268       .  A
O2173      C2183   1.268       .  A
O2174     Ni2179   1.855   1_554  S
O2175     Ni2180   1.991       .  S
O2176      C2183   1.293       .  A
O2178     Ni2180   1.991       .  S
O2178      C2181   1.293       .  A
Ni2179    Ni2180   2.345       .  S
O2185      C2195   1.293       .  A
O2186     Ni2193   1.988       .  S
O2186      C2196   1.293       .  A
O2187      C2197   1.293       .  A
O2188     Ni2945   1.986   1_545  S
O2188      C2198   1.292       .  A
O2189     Ni2946   1.855   1_545  S
O2189      C2198   1.269       .  A
O2190      C2197   1.268       .  A
O2191     Ni2194   1.856       .  S
O2191      C2196   1.269       .  A
O2192      C2195   1.269       .  A
Ni2193     O2940   1.987       .  S
Ni2193    Ni2194   2.349       .  S
Ni2194     O2941   1.855       .  S
O2199     Ni2207   1.989       .  S
O2200     Ni2959   1.989   1_545  S
O2200      C2210   1.293       .  A
O2201     Ni2207   1.990       .  S
O2201      C2211   1.293       .  A
O2202     Ni2959   1.992   1_545  S
O2203     Ni2960   1.858   1_544  S
O2204     Ni2208   1.858       .  S
O2204      C2211   1.269       .  A
O2205     Ni2960   1.856   1_545  S
O2205      C2210   1.269       .  A
O2206     Ni2208   1.855       .  S
Ni2207     O2952   1.989       .  S
Ni2207     O2954   1.992       .  S
Ni2207    Ni2208   2.342       .  S
Ni2208     O2955   1.857   1_556  S
Ni2208     O2957   1.856       .  S
O2213     Ni2973   1.990       .  S
O2213      C2223   1.293       .  A
O2214      C2224   1.292       .  A
O2215      C2225   1.293       .  A
O2216     Ni2221   1.991       .  S
O2216      C2226   1.293       .  A
O2217     Ni2222   1.854       .  S
O2217      C2226   1.268       .  A
O2218      C2225   1.269       .  A
O2219      C2224   1.268       .  A
O2220     Ni2974   1.855   1_545  S
O2220      C2223   1.268       .  A
Ni2221     O2965   1.989       .  S
Ni2221    Ni2222   2.346       .  S
Ni2222     O2972   1.854       .  S
O2227     Ni2235   1.992   1_655  S
O2227      C2237   1.293       .  A
O2229     Ni2235   1.992   1_655  S
O2230      C2240   1.293       .  A
O2231      C2240   1.268       .  A
O2232     Ni2236   1.854   1_654  S
O2234     Ni2236   1.854   1_655  S
O2234      C2237   1.268       .  A
Ni2235    Ni2236   2.345       .  S
C2241      C2242   1.213       .  T
C2243      C2244   1.213       .  T
C2245      C2246   1.213       .  T
C2247      C2248   1.214       .  T
C2249      C2250   1.214       .  T
C2251      C2252   1.212       .  T
C2253      C2254   1.213       .  T
C2255      C2256   1.212       .  T
O2257     Ni2265   1.855       .  S
O2257      C2267   1.268       .  A
O2258     Ni2265   1.855       .  S
O2258      C2268   1.268       .  A
O2259     Ni2265   1.857       .  S
O2259      C2269   1.268       .  A
O2260     Ni2265   1.857       .  S
O2260      C2270   1.268       .  A
O2261     Ni2266   1.992       .  S
O2261      C2270   1.294       .  A
O2262     Ni2266   1.992       .  S
O2262      C2269   1.293       .  A
O2263     Ni2266   1.990       .  S
O2263      C2268   1.293       .  A
O2264     Ni2266   1.990       .  S
O2264      C2267   1.293       .  A
Ni2265    Ni2266   2.341       .  S
C2267      C2391   1.503       .  S
C2268      C2367   1.503       .  S
C2269      C2444   1.505       .  S
C2270      C2348   1.505       .  S
O2271     Ni2279   1.991       .  S
O2271      C2281   1.293       .  A
O2272     Ni2279   1.990       .  S
O2272      C2282   1.293       .  A
O2273     Ni2279   1.991       .  S
O2273      C2283   1.293       .  A
O2274     Ni2279   1.988       .  S
O2274      C2284   1.293       .  A
O2275     Ni2280   1.856       .  S
O2275      C2284   1.268       .  A
O2276     Ni2280   1.853       .  S
O2276      C2283   1.268       .  A
O2277     Ni2280   1.857       .  S
O2277      C2282   1.269       .  A
O2278     Ni2280   1.857       .  S
O2278      C2281   1.269       .  A
Ni2279    Ni2280   2.345       .  S
C2281      C2420   1.506       .  S
C2282      C2372   1.505       .  S
C2283      C2487   1.506       .  S
C2284      C2343   1.502       .  S
O2285     Ni2293   1.854       .  S
O2285      C2295   1.268       .  A
O2286     Ni2293   1.854       .  S
O2286      C2296   1.268       .  A
O2287     Ni2293   1.853       .  S
O2287      C2297   1.268       .  A
O2288     Ni2293   1.856       .  S
O2288      C2298   1.268       .  A
O2289     Ni2294   1.990       .  S
O2289      C2298   1.293       .  A
O2290     Ni2294   1.994       .  S
O2290      C2297   1.293       .  A
O2291     Ni2294   1.991       .  S
O2291      C2296   1.293       .  A
O2292     Ni2294   1.989       .  S
O2292      C2295   1.293       .  A
Ni2293    Ni2294   2.343       .  S
C2295      C2346   1.502       .  S
C2296      C2466   1.505       .  S
C2297      C2418   1.507       .  S
C2298      C2394   1.502       .  S
O2299     Ni2307   1.855       .  S
O2299      C2309   1.268       .  A
O2300     Ni2307   1.852       .  S
O2300      C2310   1.268       .  A
O2301     Ni2307   1.855       .  S
O2301      C2311   1.269       .  A
O2302     Ni2307   1.856       .  S
O2302      C2312   1.269       .  A
O2303     Ni2308   1.990       .  S
O2303      C2312   1.293       .  A
O2304     Ni2308   1.989       .  S
O2304      C2311   1.293       .  A
O2305     Ni2308   1.990       .  S
O2305      C2310   1.293       .  A
O2306     Ni2308   1.986       .  S
O2306      C2309   1.292       .  A
Ni2307    Ni2308   2.346       .  S
C2309      C2439   1.500       .  S
C2310      C2463   1.504       .  S
C2311      C2396   1.502       .  S
C2312      C2514   1.505       .  S
O2313     Ni2321   1.991       .  S
O2313      C2323   1.293       .  A
O2314     Ni2321   1.991       .  S
O2314      C2324   1.293       .  A
O2315     Ni2321   1.990       .  S
O2315      C2325   1.293       .  A
O2316     Ni2321   1.994       .  S
O2316      C2326   1.293       .  A
O2317     Ni2322   1.853       .  S
O2317      C2326   1.268       .  A
O2318     Ni2322   1.856       .  S
O2318      C2325   1.269       .  A
O2319     Ni2322   1.854       .  S
O2319      C2324   1.268       .  A
O2320     Ni2322   1.854       .  S
O2320      C2323   1.268       .  A
Ni2321    Ni2322   2.343       .  S
C2323      C2442   1.504       .  S
C2324      C2490   1.504       .  S
C2325      C2370   1.504       .  S
C2326      C2511   1.507       .  S
O2327     Ni2335   1.994       .  S
O2327      C2337   1.294       .  A
O2328     Ni2335   1.994       .  S
O2328      C2338   1.293       .  A
O2329     Ni2335   1.991       .  S
O2329      C2339   1.293       .  A
O2330     Ni2335   1.992       .  S
O2330      C2340   1.293       .  A
O2331     Ni2336   1.852       .  S
O2331      C2340   1.268       .  A
O2332     Ni2336   1.851       .  S
O2332      C2339   1.268       .  A
O2333     Ni2336   1.854       .  S
O2333      C2338   1.268       .  A
O2334     Ni2336   1.853       .  S
O2334      C2337   1.268       .  A
Ni2335    Ni2336   2.354       .  S
C2337      C2492   1.508       .  S
C2338      C2468   1.508       .  S
C2339      C2415   1.505       .  S
C2340      C2516   1.507       .  S
C2341      C2342   1.564       .  S
C2341      C2347   1.566       .  S
C2341      C2345   1.564       .  S
C2341      C2631   1.479       .  S
C2342      H2349   1.086       .  S
C2342      C2343   1.366       .  D
C2343      C2344   1.531       .  S
C2344      C2348   1.532       .  S
C2344      C2346   1.532       .  S
C2344      H2350   1.095       .  S
C2345      H2351   1.084       .  S
C2345      C2346   1.366       .  D
C2347      H2352   1.087       .  S
C2347      C2348   1.367       .  D
C2353      C2354   1.564       .  S
C2353      C2359   1.564       .  S
C2353      C2357   1.565       .  S
C2353      C2632   1.479       .  S
C2354      H2361   1.086       .  S
C2354      C2355   1.367       .  D
C2355      C2600   1.501       .  S
C2355      C2356   1.531       .  S
C2356      C2360   1.531       .  S
C2356      C2358   1.531       .  S
C2356      H2362   1.096       .  S
C2357      H2363   1.085       .  S
C2357      C2358   1.367       .  D
C2358      C2613   1.503       .  S
C2359      H2364   1.086       .  S
C2359      C2360   1.366       .  D
C2360      C2587   1.503       .  S
C2365      C2366   1.564       .  S
C2365      C2371   1.565       .  S
C2365      C2369   1.565       .  S
C2365      C2629   1.480       .  S
C2366      H2373   1.086       .  S
C2366      C2367   1.367       .  D
C2367      C2368   1.532       .  S
C2368      C2372   1.531       .  S
C2368      C2370   1.531       .  S
C2368      H2374   1.095       .  S
C2369      H2375   1.085       .  S
C2369      C2370   1.367       .  D
C2371      H2376   1.086       .  S
C2371      C2372   1.368       .  D
C2377      C2378   1.564       .  S
C2377      C2383   1.564       .  S
C2377      C2381   1.565       .  S
C2377      C2630   1.480       .  S
C2378      H2385   1.085       .  S
C2378      C2379   1.367       .  D
C2379      C2559   1.503       .  S
C2379      C2380   1.531       .  S
C2380      C2384   1.531       .  S
C2380      C2382   1.531       .  S
C2380      H2386   1.096       .  S
C2381      H2387   1.087       .  S
C2381      C2382   1.367       .  D
C2382      C2601   1.503       .  S
C2383      H2388   1.086       .  S
C2383      C2384   1.367       .  D
C2384      C2586   1.502       .  S
C2389      C2390   1.565       .  S
C2389      C2395   1.564       .  S
C2389      C2393   1.564       .  S
C2389      C2628   1.478       .  S
C2390      H2397   1.086       .  S
C2390      C2391   1.367       .  D
C2391      C2392   1.532       .  S
C2392      C2396   1.531       .  S
C2392      C2394   1.531       .  S
C2392      H2398   1.096       .  S
C2393      H2399   1.085       .  S
C2393      C2394   1.366       .  D
C2395      H2400   1.086       .  S
C2395      C2396   1.367       .  D
C2401      C2402   1.564       .  S
C2401      C2407   1.565       .  S
C2401      C2405   1.566       .  S
C2401      C2627   1.478       .  S
C2402      H2409   1.084       .  S
C2402      C2403   1.365       .  D
C2403      C2616   1.504       .  S
C2403      C2404   1.532       .  S
C2404      C2408   1.532       .  S
C2404      C2406   1.531       .  S
C2404      H2410   1.094       .  S
C2405      H2411   1.086       .  S
C2405      C2406   1.367       .  D
C2406      C2602   1.505       .  S
C2407      H2412   1.086       .  S
C2407      C2408   1.367       .  D
C2408      C2546   1.505       .  S
C2413      C2414   1.566       .  S
C2413      C2419   1.567       .  S
C2413      C2417   1.567       .  S
C2413      C2625   1.482       .  S
C2414      H2421   1.086       .  S
C2414      C2415   1.367       .  D
C2415      C2416   1.531       .  S
C2416      C2420   1.530       .  S
C2416      C2418   1.532       .  S
C2416      H2422   1.093       .  S
C2417      H2423   1.084       .  S
C2417      C2418   1.368       .  D
C2419      H2424   1.086       .  S
C2419      C2420   1.368       .  D
C2425      C2426   1.566       .  S
C2425      C2431   1.565       .  S
C2425      C2429   1.564       .  S
C2425      C2626   1.482       .  S
C2426      H2433   1.084       .  S
C2426      C2427   1.368       .  D
C2427      C2615   1.505       .  S
C2427      C2428   1.532       .  S
C2428      C2432   1.530       .  S
C2428      C2430   1.530       .  S
C2428      H2434   1.095       .  S
C2429      H2435   1.087       .  S
C2429      C2430   1.366       .  D
C2430      C2572   1.503       .  S
C2431      H2436   1.086       .  S
C2431      C2432   1.367       .  D
C2432      C2585   1.503       .  S
C2437      C2438   1.563       .  S
C2437      C2443   1.565       .  S
C2437      C2441   1.565       .  S
C2437      C2623   1.479       .  S
C2438      H2445   1.086       .  S
C2438      C2439   1.366       .  D
C2439      C2440   1.531       .  S
C2440      C2444   1.532       .  S
C2440      C2442   1.532       .  S
C2440      H2446   1.095       .  S
C2441      H2447   1.085       .  S
C2441      C2442   1.367       .  D
C2443      H2448   1.086       .  S
C2443      C2444   1.367       .  D
C2449      C2450   1.566       .  S
C2449      C2455   1.565       .  S
C2449      C2453   1.566       .  S
C2449      C2624   1.479       .  S
C2450      H2457   1.084       .  S
C2450      C2451   1.367       .  D
C2451      C2557   1.505       .  S
C2451      C2452   1.531       .  S
C2452      C2456   1.531       .  S
C2452      C2454   1.532       .  S
C2452      H2458   1.093       .  S
C2453      H2459   1.086       .  S
C2453      C2454   1.367       .  D
C2454      C2544   1.507       .  S
C2455      H2460   1.086       .  S
C2455      C2456   1.366       .  D
C2456      C2599   1.504       .  S
C2461      C2462   1.565       .  S
C2461      C2467   1.568       .  S
C2461      C2465   1.566       .  S
C2461      C2622   1.482       .  S
C2462      H2469   1.086       .  S
C2462      C2463   1.367       .  D
C2463      C2464   1.531       .  S
C2464      C2468   1.530       .  S
C2464      C2466   1.530       .  S
C2464      H2470   1.093       .  S
C2465      H2471   1.084       .  S
C2465      C2466   1.367       .  D
C2467      H2472   1.087       .  S
C2467      C2468   1.368       .  D
C2473      C2474   1.565       .  S
C2473      C2479   1.567       .  S
C2473      C2477   1.567       .  S
C2473      C2621   1.482       .  S
C2474      H2481   1.086       .  S
C2474      C2475   1.366       .  D
C2475      C2573   1.503       .  S
C2475      C2476   1.530       .  S
C2476      C2480   1.531       .  S
C2476      C2478   1.531       .  S
C2476      H2482   1.094       .  S
C2477      H2483   1.084       .  S
C2477      C2478   1.368       .  D
C2478      C2614   1.506       .  S
C2479      H2484   1.086       .  S
C2479      C2480   1.368       .  D
C2480      C2543   1.507       .  S
C2485      C2486   1.566       .  S
C2485      C2491   1.567       .  S
C2485      C2489   1.565       .  S
C2485      C2620   1.480       .  S
C2486      H2493   1.086       .  S
C2486      C2487   1.367       .  D
C2487      C2488   1.531       .  S
C2488      C2492   1.531       .  S
C2488      C2490   1.531       .  S
C2488      H2494   1.093       .  S
C2489      H2495   1.084       .  S
C2489      C2490   1.366       .  D
C2491      H2496   1.086       .  S
C2491      C2492   1.368       .  D
C2497      C2498   1.564       .  S
C2497      C2503   1.567       .  S
C2497      C2501   1.565       .  S
C2497      C2619   1.480       .  S
C2498      H2505   1.086       .  S
C2498      C2499   1.366       .  D
C2499      C2574   1.501       .  S
C2499      C2500   1.530       .  S
C2500      C2504   1.531       .  S
C2500      C2502   1.531       .  S
C2500      H2506   1.094       .  S
C2501      H2507   1.085       .  S
C2501      C2502   1.367       .  D
C2502      C2558   1.504       .  S
C2503      H2508   1.086       .  S
C2503      C2504   1.368       .  D
C2504      C2588   1.507       .  S
C2509      C2510   1.567       .  S
C2509      C2515   1.567       .  S
C2509      C2513   1.566       .  S
C2509      C2617   1.482       .  S
C2510      H2517   1.084       .  S
C2510      C2511   1.368       .  D
C2511      C2512   1.532       .  S
C2512      C2516   1.531       .  S
C2512      C2514   1.530       .  S
C2512      H2518   1.093       .  S
C2513      H2519   1.086       .  S
C2513      C2514   1.367       .  D
C2515      H2520   1.086       .  S
C2515      C2516   1.368       .  D
C2521      C2522   1.565       .  S
C2521      C2527   1.566       .  S
C2521      C2525   1.566       .  S
C2521      C2618   1.481       .  S
C2522      H2529   1.086       .  S
C2522      C2523   1.367       .  D
C2523      C2545   1.505       .  S
C2523      C2524   1.531       .  S
C2524      C2528   1.529       .  S
C2524      C2526   1.531       .  S
C2524      H2530   1.094       .  S
C2525      H2531   1.084       .  S
C2525      C2526   1.368       .  D
C2526      C2560   1.506       .  S
C2527      H2532   1.087       .  S
C2527      C2528   1.367       .  D
C2528      C2571   1.504       .  S
O2533     Ni2541   1.994       .  S
O2533      C2919   1.293       .  A
O2534      C2544   1.294       .  A
O2535      C2921   1.293       .  A
O2536     Ni2541   1.992       .  S
O2536      C2546   1.293       .  A
O2537     Ni2542   1.851       .  S
O2537      C2546   1.268       .  A
O2538      C2921   1.267       .  A
O2539      C2544   1.267       .  A
O2540     Ni2542   1.852       .  S
O2540      C2919   1.268       .  A
Ni2541    Ni2542   2.352       .  S
C2543      O2909   1.294   1_554  A
C2543      O2916   1.268       .  A
C2545      O2911   1.293   1_554  A
C2545      O2914   1.268   1_554  A
O2547     Ni2555   1.853       .  S
O2547      C2557   1.268       .  A
O2548      C2934   1.268       .  A
O2549      C2559   1.268       .  A
O2550     Ni2555   1.853       .  S
O2550      C2936   1.268       .  A
O2551     Ni2556   1.993       .  S
O2551      C2936   1.293       .  A
O2552      C2559   1.293       .  A
O2553      C2934   1.293       .  A
O2554     Ni2556   1.991       .  S
O2554      C2557   1.293       .  A
Ni2555    Ni2556   2.345       .  S
C2558      O2924   1.268   1_554  A
C2558      O2929   1.293   1_554  A
C2560      O2926   1.268       .  A
C2560      O2927   1.293   1_554  A
O2561      C2571   1.292       .  A
O2562     Ni2569   1.989       .  S
O2562      C2572   1.293       .  A
O2563      C2573   1.292       .  A
O2564      C2574   1.292       .  A
O2565      C2574   1.268       .  A
O2566      C2573   1.269       .  A
O2567     Ni2570   1.857       .  S
O2567      C2572   1.269       .  A
O2568      C2571   1.269       .  A
Ni2569    Ni2570   2.345       .  S
O2575     Ni2583   1.991       .  S
O2575      C2961   1.293       .  A
O2576      C2586   1.293       .  A
O2577     Ni2583   1.989       .  S
O2577      C2587   1.293       .  A
O2578      C2964   1.293       .  A
O2579      C2964   1.269       .  A
O2580     Ni2584   1.858       .  S
O2580      C2587   1.269       .  A
O2581      C2586   1.269       .  A
O2582     Ni2584   1.855       .  S
O2582      C2961   1.268       .  A
Ni2583    Ni2584   2.340       .  S
C2585      O2951   1.293   1_554  A
C2585      O2958   1.269   1_554  A
C2588      O2954   1.293   1_554  A
C2588      O2955   1.269       .  A
O2589      C2599   1.293       .  A
O2590      C2600   1.292       .  A
O2591      C2601   1.293       .  A
O2592     Ni2597   1.990   1_565  S
O2592      C2602   1.293       .  A
O2593     Ni2598   1.857       .  S
O2593      C2602   1.269       .  A
O2594      C2601   1.269       .  A
O2595      C2600   1.269       .  A
O2596      C2599   1.268       .  A
Ni2597    Ni2598   2.343   1_545  S
O2603     Ni2611   1.991       .  S
O2603      C2613   1.293       .  A
O2604      C2990   1.293       .  A
O2605     Ni2611   1.990       .  S
O2605      C2991   1.293       .  A
O2606      C2616   1.293       .  A
O2607      C2616   1.268       .  A
O2608     Ni2612   1.856       .  S
O2608      C2991   1.269       .  A
O2609      C2990   1.268       .  A
O2610     Ni2612   1.856       .  S
O2610      C2613   1.268       .  A
Ni2611    Ni2612   2.344       .  S
C2614      O2980   1.293   1_554  A
C2614      O2985   1.268   1_554  A
C2615      O2981   1.293   1_554  A
C2615      O2984   1.268       .  A
C2617      C2618   1.214       .  T
C2619      C2620   1.213       .  T
C2621      C2622   1.214       .  T
C2623      C2624   1.213       .  T
C2625      C2626   1.214       .  T
C2627      C2628   1.212       .  T
C2629      C2630   1.213       .  T
C2631      C2632   1.213       .  T
O2633     Ni2641   1.855       .  S
O2633      C2643   1.268       .  A
O2634     Ni2641   1.855       .  S
O2634      C2644   1.268       .  A
O2635     Ni2641   1.857       .  S
O2635      C2645   1.268       .  A
O2636     Ni2641   1.857       .  S
O2636      C2646   1.268       .  A
O2637     Ni2642   1.992       .  S
O2637      C2646   1.294       .  A
O2638     Ni2642   1.991       .  S
O2638      C2645   1.293       .  A
O2639     Ni2642   1.989       .  S
O2639      C2644   1.293       .  A
O2640     Ni2642   1.990       .  S
O2640      C2643   1.293       .  A
Ni2641    Ni2642   2.341       .  S
C2643      C2767   1.503       .  S
C2644      C2743   1.502       .  S
C2645      C2820   1.505       .  S
C2646      C2724   1.504       .  S
O2647     Ni2655   1.991       .  S
O2647      C2657   1.293       .  A
O2648     Ni2655   1.990       .  S
O2648      C2658   1.293       .  A
O2649     Ni2655   1.991       .  S
O2649      C2659   1.293       .  A
O2650     Ni2655   1.987       .  S
O2650      C2660   1.293       .  A
O2651     Ni2656   1.857       .  S
O2651      C2660   1.269       .  A
O2652     Ni2656   1.853       .  S
O2652      C2659   1.268       .  A
O2653     Ni2656   1.858       .  S
O2653      C2658   1.269       .  A
O2654     Ni2656   1.858       .  S
O2654      C2657   1.269       .  A
Ni2655    Ni2656   2.344       .  S
C2657      C2796   1.505       .  S
C2658      C2748   1.504       .  S
C2659      C2863   1.505       .  S
C2660      C2719   1.501       .  S
O2661     Ni2669   1.854       .  S
O2661      C2671   1.268       .  A
O2662     Ni2669   1.855       .  S
O2662      C2672   1.268       .  A
O2663     Ni2669   1.853       .  S
O2663      C2673   1.268       .  A
O2664     Ni2669   1.856       .  S
O2664      C2674   1.269       .  A
O2665     Ni2670   1.988       .  S
O2665      C2674   1.293       .  A
O2666     Ni2670   1.993       .  S
O2666      C2673   1.293       .  A
O2667     Ni2670   1.991       .  S
O2667      C2672   1.293       .  A
O2668     Ni2670   1.989       .  S
O2668      C2671   1.293       .  A
Ni2669    Ni2670   2.343       .  S
C2671      C2722   1.501       .  S
C2672      C2842   1.505       .  S
C2673      C2794   1.506       .  S
C2674      C2770   1.501       .  S
O2675     Ni2683   1.854       .  S
O2675      C2685   1.268       .  A
O2676     Ni2683   1.851       .  S
O2676      C2686   1.267       .  A
O2677     Ni2683   1.855       .  S
O2677      C2687   1.268       .  A
O2678     Ni2683   1.855       .  S
O2678      C2688   1.268       .  A
O2679     Ni2684   1.990       .  S
O2679      C2688   1.293       .  A
O2680     Ni2684   1.989       .  S
O2680      C2687   1.293       .  A
O2681     Ni2684   1.991       .  S
O2681      C2686   1.293       .  A
O2682     Ni2684   1.987       .  S
O2682      C2685   1.293       .  A
Ni2683    Ni2684   2.347       .  S
C2685      C2815   1.500       .  S
C2686      C2839   1.504       .  S
C2687      C2772   1.503       .  S
C2688      C2890   1.504       .  S
O2689     Ni2697   1.991       .  S
O2689      C2699   1.293       .  A
O2690     Ni2697   1.991       .  S
O2690      C2700   1.293       .  A
O2691     Ni2697   1.990       .  S
O2691      C2701   1.293       .  A
O2692     Ni2697   1.994       .  S
O2692      C2702   1.293       .  A
O2693     Ni2698   1.852       .  S
O2693      C2702   1.268       .  A
O2694     Ni2698   1.855       .  S
O2694      C2701   1.268       .  A
O2695     Ni2698   1.855       .  S
O2695      C2700   1.268       .  A
O2696     Ni2698   1.855       .  S
O2696      C2699   1.269       .  A
Ni2697    Ni2698   2.343       .  S
C2699      C2818   1.505       .  S
C2700      C2866   1.504       .  S
C2701      C2746   1.502       .  S
C2702      C2887   1.506       .  S
O2703     Ni2711   1.993       .  S
O2703      C2713   1.293       .  A
O2704     Ni2711   1.993       .  S
O2704      C2714   1.293       .  A
O2705     Ni2711   1.991       .  S
O2705      C2715   1.293       .  A
O2706     Ni2711   1.991       .  S
O2706      C2716   1.293       .  A
O2707     Ni2712   1.853       .  S
O2707      C2716   1.268       .  A
O2708     Ni2712   1.853       .  S
O2708      C2715   1.268       .  A
O2709     Ni2712   1.855       .  S
O2709      C2714   1.268       .  A
O2710     Ni2712   1.855       .  S
O2710      C2713   1.268       .  A
Ni2711    Ni2712   2.353       .  S
C2713      C2868   1.507       .  S
C2714      C2844   1.507       .  S
C2715      C2791   1.505       .  S
C2716      C2892   1.506       .  S
C2717      C2718   1.563       .  S
C2717      C2723   1.565       .  S
C2717      C2721   1.563       .  S
C2717      C3007   1.477       .  S
C2718      H2725   1.086       .  S
C2718      C2719   1.366       .  D
C2719      C2720   1.530       .  S
C2720      C2724   1.532       .  S
C2720      C2722   1.531       .  S
C2720      H2726   1.096       .  S
C2721      H2727   1.084       .  S
C2721      C2722   1.366       .  D
C2723      H2728   1.086       .  S
C2723      C2724   1.367       .  D
C2729      C2730   1.564       .  S
C2729      C2735   1.565       .  S
C2729      C2733   1.565       .  S
C2729      C3008   1.478       .  S
C2730      H2737   1.086       .  S
C2730      C2731   1.367       .  D
C2731      C2976   1.502       .  S
C2731      C2732   1.531       .  S
C2732      C2736   1.531       .  S
C2732      C2734   1.531       .  S
C2732      H2738   1.095       .  S
C2733      H2739   1.085       .  S
C2733      C2734   1.367       .  D
C2734      C2989   1.504       .  S
C2735      H2740   1.086       .  S
C2735      C2736   1.367       .  D
C2736      C2963   1.504       .  S
C2741      C2742   1.564       .  S
C2741      C2747   1.565       .  S
C2741      C2745   1.564       .  S
C2741      C3005   1.479       .  S
C2742      H2749   1.086       .  S
C2742      C2743   1.366       .  D
C2743      C2744   1.532       .  S
C2744      C2748   1.531       .  S
C2744      C2746   1.531       .  S
C2744      H2750   1.096       .  S
C2745      H2751   1.085       .  S
C2745      C2746   1.366       .  D
C2747      H2752   1.086       .  S
C2747      C2748   1.368       .  D
C2753      C2754   1.564       .  S
C2753      C2759   1.565       .  S
C2753      C2757   1.565       .  S
C2753      C3006   1.479       .  S
C2754      H2761   1.084       .  S
C2754      C2755   1.366       .  D
C2755      C2935   1.503       .  S
C2755      C2756   1.531       .  S
C2756      C2760   1.531       .  S
C2756      C2758   1.531       .  S
C2756      H2762   1.095       .  S
C2757      H2763   1.087       .  S
C2757      C2758   1.367       .  D
C2758      C2977   1.505       .  S
C2759      H2764   1.086       .  S
C2759      C2760   1.367       .  D
C2760      C2962   1.503       .  S
C2765      C2766   1.565       .  S
C2765      C2771   1.565       .  S
C2765      C2769   1.563       .  S
C2765      C3004   1.478       .  S
C2766      H2773   1.086       .  S
C2766      C2767   1.367       .  D
C2767      C2768   1.532       .  S
C2768      C2772   1.531       .  S
C2768      C2770   1.530       .  S
C2768      H2774   1.095       .  S
C2769      H2775   1.085       .  S
C2769      C2770   1.366       .  D
C2771      H2776   1.086       .  S
C2771      C2772   1.367       .  D
C2777      C2778   1.564       .  S
C2777      C2783   1.566       .  S
C2777      C2781   1.566       .  S
C2777      C3003   1.478       .  S
C2778      H2785   1.084       .  S
C2778      C2779   1.366       .  D
C2779      C2992   1.504       .  S
C2779      C2780   1.531       .  S
C2780      C2784   1.531       .  S
C2780      C2782   1.532       .  S
C2780      H2786   1.094       .  S
C2781      H2787   1.086       .  S
C2781      C2782   1.367       .  D
C2782      C2978   1.505       .  S
C2783      H2788   1.086       .  S
C2783      C2784   1.367       .  D
C2784      C2922   1.505       .  S
C2789      C2790   1.566       .  S
C2789      C2795   1.566       .  S
C2789      C2793   1.566       .  S
C2789      C3001   1.481       .  S
C2790      H2797   1.086       .  S
C2790      C2791   1.367       .  D
C2791      C2792   1.530       .  S
C2792      C2796   1.530       .  S
C2792      C2794   1.532       .  S
C2792      H2798   1.093       .  S
C2793      H2799   1.084       .  S
C2793      C2794   1.368       .  D
C2795      H2800   1.086       .  S
C2795      C2796   1.367       .  D
C2801      C2802   1.566       .  S
C2801      C2807   1.565       .  S
C2801      C2805   1.565       .  S
C2801      C3002   1.481       .  S
C2802      H2809   1.084       .  S
C2802      C2803   1.368       .  D
C2803      C2991   1.505       .  S
C2803      C2804   1.531       .  S
C2804      C2808   1.531       .  S
C2804      C2806   1.530       .  S
C2804      H2810   1.094       .  S
C2805      H2811   1.087       .  S
C2805      C2806   1.367       .  D
C2806      C2948   1.503       .  S
C2807      H2812   1.086       .  S
C2807      C2808   1.367       .  D
C2808      C2961   1.504       .  S
C2813      C2814   1.563       .  S
C2813      C2819   1.565       .  S
C2813      C2817   1.566       .  S
C2813      C2999   1.480       .  S
C2814      H2821   1.086       .  S
C2814      C2815   1.366       .  D
C2815      C2816   1.531       .  S
C2816      C2820   1.531       .  S
C2816      C2818   1.532       .  S
C2816      H2822   1.095       .  S
C2817      H2823   1.084       .  S
C2817      C2818   1.368       .  D
C2819      H2824   1.087       .  S
C2819      C2820   1.367       .  D
C2825      C2826   1.566       .  S
C2825      C2831   1.565       .  S
C2825      C2829   1.565       .  S
C2825      C3000   1.480       .  S
C2826      H2833   1.084       .  S
C2826      C2827   1.368       .  D
C2827      C2933   1.504       .  S
C2827      C2828   1.531       .  S
C2828      C2832   1.531       .  S
C2828      C2830   1.531       .  S
C2828      H2834   1.094       .  S
C2829      H2835   1.086       .  S
C2829      C2830   1.367       .  D
C2830      C2920   1.506       .  S
C2831      H2836   1.086       .  S
C2831      C2832   1.367       .  D
C2832      C2975   1.503       .  S
C2837      C2838   1.565       .  S
C2837      C2843   1.567       .  S
C2837      C2841   1.566       .  S
C2837      C2998   1.480       .  S
C2838      H2845   1.086       .  S
C2838      C2839   1.367       .  D
C2839      C2840   1.531       .  S
C2840      C2844   1.530       .  S
C2840      C2842   1.530       .  S
C2840      H2846   1.093       .  S
C2841      H2847   1.085       .  S
C2841      C2842   1.367       .  D
C2843      H2848   1.087       .  S
C2843      C2844   1.368       .  D
C2849      C2850   1.565       .  S
C2849      C2855   1.567       .  S
C2849      C2853   1.567       .  S
C2849      C2997   1.480       .  S
C2850      H2857   1.086       .  S
C2850      C2851   1.366       .  D
C2851      C2949   1.504       .  S
C2851      C2852   1.531       .  S
C2852      C2856   1.531       .  S
C2852      C2854   1.532       .  S
C2852      H2858   1.093       .  S
C2853      H2859   1.084       .  S
C2853      C2854   1.367       .  D
C2854      C2990   1.507       .  S
C2855      H2860   1.086       .  S
C2855      C2856   1.368       .  D
C2856      C2919   1.507       .  S
C2861      C2862   1.566       .  S
C2861      C2867   1.567       .  S
C2861      C2865   1.565       .  S
C2861      C2996   1.480       .  S
C2862      H2869   1.086       .  S
C2862      C2863   1.367       .  D
C2863      C2864   1.531       .  S
C2864      C2868   1.530       .  S
C2864      C2866   1.530       .  S
C2864      H2870   1.093       .  S
C2865      H2871   1.084       .  S
C2865      C2866   1.366       .  D
C2867      H2872   1.086       .  S
C2867      C2868   1.368       .  D
C2873      C2874   1.565       .  S
C2873      C2879   1.566       .  S
C2873      C2877   1.565       .  S
C2873      C2995   1.480       .  S
C2874      H2881   1.086       .  S
C2874      C2875   1.367       .  D
C2875      C2950   1.502       .  S
C2875      C2876   1.530       .  S
C2876      C2880   1.530       .  S
C2876      C2878   1.531       .  S
C2876      H2882   1.094       .  S
C2877      H2883   1.085       .  S
C2877      C2878   1.367       .  D
C2878      C2934   1.504       .  S
C2879      H2884   1.086       .  S
C2879      C2880   1.368       .  D
C2880      C2964   1.505       .  S
C2885      C2886   1.566       .  S
C2885      C2891   1.567       .  S
C2885      C2889   1.565       .  S
C2885      C2993   1.480       .  S
C2886      H2893   1.084       .  S
C2886      C2887   1.367       .  D
C2887      C2888   1.532       .  S
C2888      C2892   1.530       .  S
C2888      C2890   1.530       .  S
C2888      H2894   1.093       .  S
C2889      H2895   1.086       .  S
C2889      C2890   1.367       .  D
C2891      H2896   1.086       .  S
C2891      C2892   1.368       .  D
C2897      C2898   1.566       .  S
C2897      C2903   1.566       .  S
C2897      C2901   1.566       .  S
C2897      C2994   1.480       .  S
C2898      H2905   1.086       .  S
C2898      C2899   1.367       .  D
C2899      C2921   1.506       .  S
C2899      C2900   1.532       .  S
C2900      C2904   1.530       .  S
C2900      C2902   1.531       .  S
C2900      H2906   1.092       .  S
C2901      H2907   1.084       .  S
C2901      C2902   1.367       .  D
C2902      C2936   1.507       .  S
C2903      H2908   1.086       .  S
C2903      C2904   1.367       .  D
C2904      C2947   1.505       .  S
O2909     Ni2917   1.994   1_565  S
O2910      C2920   1.294       .  A
O2912     Ni2917   1.992   1_565  S
O2912      C2922   1.293       .  A
O2913     Ni2918   1.854   1_565  S
O2913      C2922   1.268       .  A
O2915      C2920   1.268       .  A
O2916     Ni2918   1.854   1_564  S
Ni2917    Ni2918   2.346       .  S
O2923     Ni2931   1.854       .  S
O2923      C2933   1.268       .  A
O2925      C2935   1.268       .  A
O2926     Ni2931   1.855   1_554  S
O2927     Ni2932   1.992       .  S
O2928      C2935   1.293       .  A
O2930     Ni2932   1.991       .  S
O2930      C2933   1.293       .  A
Ni2931    Ni2932   2.344       .  S
O2937      C2947   1.293       .  A
O2938     Ni2945   1.989       .  S
O2938      C2948   1.293       .  A
O2939      C2949   1.293       .  A
O2940      C2950   1.292       .  A
O2941      C2950   1.269       .  A
O2942      C2949   1.268       .  A
O2943     Ni2946   1.856       .  S
O2943      C2948   1.269       .  A
O2944      C2947   1.268       .  A
Ni2945    Ni2946   2.350       .  S
O2951     Ni2959   1.989       .  S
O2952      C2962   1.293       .  A
O2953     Ni2959   1.990       .  S
O2953      C2963   1.293       .  A
O2956     Ni2960   1.858       .  S
O2956      C2963   1.269       .  A
O2957      C2962   1.269       .  A
O2958     Ni2960   1.856       .  S
Ni2959    Ni2960   2.344       .  S
O2965      C2975   1.293       .  A
O2966      C2976   1.293       .  A
O2967      C2977   1.293       .  A
O2968     Ni2973   1.992   1_565  S
O2968      C2978   1.293       .  A
O2969     Ni2974   1.854       .  S
O2969      C2978   1.268       .  A
O2970      C2977   1.269       .  A
O2971      C2976   1.268       .  A
O2972      C2975   1.268       .  A
Ni2973    Ni2974   2.344   1_545  S
O2979     Ni2987   1.991   1_655  S
O2979      C2989   1.293       .  A
O2981     Ni2987   1.991   1_655  S
O2982      C2992   1.293       .  A
O2983      C2992   1.268       .  A
O2984     Ni2988   1.854   1_654  S
O2986     Ni2988   1.855   1_655  S
O2986      C2989   1.268       .  A
Ni2987    Ni2988   2.345       .  S
C2993      C2994   1.214       .  T
C2995      C2996   1.213       .  T
C2997      C2998   1.214       .  T
C2999      C3000   1.213       .  T
C3001      C3002   1.214       .  T
C3003      C3004   1.212       .  T
C3005      C3006   1.213       .  T
C3007      C3008   1.212       .  T
