geometry optimzed in LAMMPS
_audit_creation_date              2020-11-30 
_audit_creation_method            'lammps2cif' 
_symmetry_space_group_name_H-M    'P1' 
_symmetry_Int_Tables_number       1 
_symmetry_cell_setting            triclinic 
loop_ 
_symmetry_equiv_pos_as_xyz 
  x,y,z 
_cell_length_a                    23.262350365701977 
_cell_length_b                    23.03433967881655 
_cell_length_c                    22.122784854943408 
_cell_angle_alpha                 89.9680125005114 
_cell_angle_beta                  89.99259956869629 
_cell_angle_gamma                 90.00477015543888 
loop_ 
_atom_site_label 
_atom_site_type_symbol 
_atom_site_fract_x 
_atom_site_fract_y 
_atom_site_fract_z 
_atom_site_charge 
C1          C  0.34536931  0.65291798  0.65604548     0.03240
C2          C  0.37406248  0.61257150  0.38155625     0.48190
N3          N  0.44610836  0.59662056  0.43426058     0.07080
C4          C  0.60593318  0.36063691  0.43556790    -0.00800
H5          H  0.39821001  0.32231504  0.46389607     0.12570
C6          C  0.40535679  0.43763476  0.64237993    -0.01150
Co7        Co  0.50521255  0.49582447  0.39327001     0.74180
N8          N  0.44720594  0.39691676  0.44237149    -0.20330
Co9        Co  0.50584058  0.39722270  0.50333550     0.74070
C10         C  0.37560544  0.38702696  0.61824394     0.48290
N11         N  0.44693088  0.56362914  0.59877080     0.06690
N12         N  0.44708672  0.40304233  0.56477888     0.06800
N13         N  0.60719872  0.42976307  0.36242102    -0.41180
H14         H  0.39677674  0.53590690  0.31726402     0.12560
N15         N  0.44571724  0.43620194  0.40026991     0.07080
N16         N  0.56550404  0.40306189  0.56389457     0.06820
C17         C  0.63760821  0.38722338  0.61657407     0.48430
N18         N  0.44803532  0.60287599  0.55661702    -0.19780
C19         C  0.60637320  0.56222289  0.35582813    -0.00700
N20         N  0.40359259  0.63244948  0.42884918    -0.40890
N21         N  0.60802217  0.36723138  0.56936068    -0.41110
C22         C  0.63610795  0.61281007  0.38009311     0.48200
N23         N  0.56473445  0.43612722  0.39940255     0.07070
N24         N  0.56442862  0.60291273  0.55575603    -0.19810
N25         N  0.44662513  0.55578100  0.39380684    -0.20300
N26         N  0.56595445  0.56360489  0.59783377     0.06710
H27         H  0.61329706  0.67767450  0.53438858     0.12600
H28         H  0.61494750  0.46402249  0.68069181     0.12640
N29         N  0.56357535  0.39685707  0.44153442    -0.20350
N30         N  0.44791713  0.44393402  0.60517646    -0.19960
N31         N  0.56452076  0.59674583  0.43337530     0.07080
C32         C  0.37432286  0.38370993  0.38507704     0.48470
C33         C  0.40580067  0.63921495  0.56275237    -0.01210
N34         N  0.56503912  0.44398821  0.60425326    -0.19960
H35         H  0.39869915  0.46373975  0.68229264     0.12620
N36         N  0.40285223  0.42999767  0.36380918    -0.41180
H37         H  0.39926194  0.67775571  0.53576737     0.12610
C38         C  0.63721090  0.61626113  0.61317175     0.48310
C39         C  0.40365655  0.56196651  0.35716232    -0.00710
Co40       Co  0.50576363  0.60251220  0.49479563     0.73820
N41         N  0.40463745  0.57012384  0.63594873    -0.40900
C42         C  0.63586323  0.38350724  0.38358661     0.48570
N43         N  0.60688630  0.63266897  0.42757538    -0.40890
Co44       Co  0.50646223  0.50395080  0.60481648     0.73890
C45         C  0.60804392  0.43788237  0.64085830    -0.01220
C46         C  0.40462695  0.36083469  0.43685079    -0.00780
N47         N  0.56374928  0.55587975  0.39294623    -0.20310
N48         N  0.40474790  0.36711097  0.57071823    -0.41070
H49         H  0.61252123  0.32214107  0.46260672     0.12580
C50         C  0.60691748  0.63911211  0.56138118    -0.01190
Cl51       Cl  0.50582149  0.49987651  0.49905270    -0.44190
C52         C  0.37599716  0.61641796  0.61485954     0.48340
H53         H  0.61311277  0.53613748  0.31591595     0.12550
N54         N  0.60873736  0.56991552  0.63438620    -0.40900
C55         C  0.66788297  0.34693953  0.65428558     0.03240
C56         C  0.34406499  0.34705396  0.34369438     0.03240
C57         C  0.66668813  0.65308456  0.34269686     0.03240
C58         C  0.34381340  0.65295494  0.34394713     0.03240
C59         C  0.66648477  0.34699041  0.34241601     0.03240
C60         C  0.34506381  0.34681844  0.65574696     0.03240
C61         C  0.66752536  0.65287982  0.65455795     0.03240
C62         C  0.28374346  0.23364158  0.99727530     0.06290
C63         C  0.24127971  0.27423798  0.99717926     0.06290
C64         C  0.23302031  0.99998200  0.26953026     0.06290
C65         C  0.27903825  0.00006988  0.22891724     0.06290
C66         C  0.00755349  0.23647782  0.26414874     0.06290
C67         C  0.00671673  0.28038556  0.22209209     0.06290
C68         C  0.50513732  0.28076108  0.27562949     0.06290
C69         C  0.50440911  0.23679535  0.23368914     0.06290
C70         C  0.27056609  0.27421384  0.49882973     0.06290
C71         C  0.22820909  0.23355120  0.50058892     0.06290
C72         C  0.23710075  0.49896627  0.22598375     0.06290
C73         C  0.27455151  0.50098041  0.27228340     0.06290
C74         C  0.28355789  0.76651524  0.99791205     0.06290
C75         C  0.24115065  0.72588024  0.99963290     0.06290
C76         C  0.72819096  0.23352356  0.00063840     0.06290
C77         C  0.77056462  0.27417495  0.99888505     0.06290
C78         C  0.00513871  0.28071408  0.77565616     0.06290
C79         C  0.00443564  0.23676187  0.73369111     0.06290
C80         C  0.73636809  0.50098867  0.27168238     0.06290
C81         C  0.77543209  0.49893066  0.22687922     0.06290
C82         C  0.27545381  0.49894175  0.72689238     0.06290
C83         C  0.23633530  0.50100438  0.77165637     0.06290
C84         C  0.84379677  0.65297697  0.84403907     0.03240
C85         C  0.87403236  0.61262480  0.88170299     0.48190
N86         N  0.94606396  0.59669547  0.93444885     0.07080
C87         C  0.10589214  0.36067102  0.93568858    -0.00800
H88         H  0.89824216  0.32227679  0.96399248     0.12570
C89         C  0.90533726  0.43763094  0.14257610    -0.01150
Co90       Co  0.00517116  0.49588024  0.89348736     0.74180
N91         N  0.94717331  0.39695403  0.94256052    -0.20330
Co92       Co  0.00582083  0.39729028  0.00352421     0.74070
C93         C  0.87558935  0.38703521  0.11838236     0.48290
N94         N  0.94689638  0.56368065  0.09896025     0.06690
N95         N  0.94707489  0.40309931  0.06495656     0.06800
N96         N  0.10712503  0.42980629  0.86254947    -0.41180
H97         H  0.89674572  0.53591092  0.81748757     0.12560
N98         N  0.94567661  0.43625114  0.90047204     0.07080
N99         N  0.06547733  0.40314581  0.06407337     0.06820
C100        C  0.13759378  0.38728535  0.11671271     0.48430
N101        N  0.94800970  0.60292502  0.05680326    -0.19780
C102        C  0.10634188  0.56223509  0.85602501    -0.00700
N103        N  0.90355999  0.63253640  0.92898877    -0.40890
N104        N  0.10800863  0.36732944  0.06948923    -0.41110
C105        C  0.13607731  0.61283500  0.88023408     0.48200
N106        N  0.06470406  0.43619185  0.89958624     0.07070
N107        N  0.06438427  0.60295884  0.05594687    -0.19810
N108        N  0.94657558  0.55582715  0.89402786    -0.20300
N109        N  0.06590940  0.56366035  0.09803507     0.06710
H110        H  0.11331132  0.67765092  0.03448746     0.12600
H111        H  0.11492513  0.46402857  0.18091402     0.12640
N112        N  0.06356134  0.39691873  0.94171442    -0.20350
N113        N  0.94789552  0.44396818  0.10538058    -0.19960
N114        N  0.06449122  0.59681631  0.93355155     0.07080
C115        C  0.87435232  0.38368804  0.88518205     0.48470
C116        C  0.90574604  0.63923294  0.06288397    -0.01210
N117        N  0.06500354  0.44404054  0.10446784    -0.19960
H118        H  0.89867136  0.46371093  0.18250599     0.12620
N119        N  0.90285732  0.43000561  0.86395731    -0.41180
H120        H  0.89920063  0.67775819  0.03587791     0.12610
C121        C  0.13723353  0.61625017  0.11327272     0.48310
C122        C  0.90361324  0.56199174  0.85737209    -0.00710
Co123      Co  0.00572874  0.60257990  0.99498840     0.73820
N124        N  0.90456390  0.57015162  0.13608901    -0.40900
C125        C  0.13578925  0.38353977  0.88367743     0.48570
N126        N  0.10685990  0.63273329  0.92771013    -0.40890
Co127      Co  0.00642583  0.50400280  0.10503397     0.73890
C128        C  0.10801358  0.43791373  0.14106283    -0.01220
C129        C  0.90463816  0.36082065  0.93697745    -0.00780
N130        N  0.06371391  0.55592764  0.89314845    -0.20310
N131        N  0.90473999  0.36715978  0.07085195    -0.41070
H132        H  0.11247694  0.32215878  0.96270401     0.12580
C133        C  0.10691428  0.63911131  0.06150918    -0.01190
Cl134      Cl  0.00578793  0.49993766  0.99926017    -0.44190
C135        C  0.87591767  0.61643309  0.11496515     0.48340
H136        H  0.11307834  0.53612332  0.81613206     0.12550
N137        N  0.10874120  0.56993071  0.13452933    -0.40900
C138        C  0.84503788  0.34679298  0.15583109     0.03240
C139        C  0.16641550  0.34704320  0.84248502     0.03240
C140        C  0.16664681  0.65307717  0.84278376     0.03240
C141        C  0.84409493  0.34704984  0.84377569     0.03240
C142        C  0.84529617  0.65295200  0.15613171     0.03240
C143        C  0.77455549  0.50097714  0.77228953     0.06290
C144        C  0.73708544  0.49896018  0.72599217     0.06290
C145        C  0.16755097  0.65288398  0.15463571     0.03240
C146        C  0.16788211  0.34696790  0.15436635     0.03240
C147        C  0.27945268  0.99999875  0.76906880     0.06290
C148        C  0.23258854  0.00004466  0.72954409     0.06290
C149        C  0.50435800  0.76350069  0.23433112     0.06290
C150        C  0.50509489  0.71954731  0.27634527     0.06290
C151        C  0.50670880  0.28035513  0.72204452     0.06290
C152        C  0.50752111  0.23647478  0.76414203     0.06290
C153        C  0.65906355  0.16124716  0.83865003     0.03240
C154        C  0.38914546  0.12863707  0.87858142     0.48190
N155        N  0.44340568  0.05961400  0.89812450     0.07080
C156        C  0.44264660  0.90018844  0.14540318    -0.00800
H157        H  0.46777473  0.10653669  0.18531056     0.12570
C158        C  0.64508141  0.10006342  0.06613129    -0.01150
Co159      Co  0.40462460  0.00003311  0.00313630     0.74180
N160        N  0.45023991  0.05943604  0.10552122    -0.20330
Co161      Co  0.50958550  0.00042956  0.10570200     0.74070
C162        C  0.62315335  0.12919709  0.11958127     0.48290
N163        N  0.60216703  0.05968203  0.93319491     0.06690
N164        N  0.56859913  0.06038281  0.10002727     0.06800
N165        N  0.37255908  0.89952028  0.07378409    -0.41180
H166        H  0.32837001  0.10523577  0.95834884     0.12560
N167        N  0.40977748  0.06022350  0.06495094     0.07080
N168        N  0.56861336  0.94049583  0.10056976     0.06820
C169        C  0.62287602  0.87148371  0.12011075     0.48430
N170        N  0.56173215  0.05869780  0.89260120    -0.19780
C171        C  0.36695397  0.89996684  0.93259727    -0.00700
N172        N  0.43558117  0.10035240  0.85862076    -0.40890
N173        N  0.57644662  0.89976835  0.14008181    -0.41110
C174        C  0.38887523  0.87082478  0.87915190     0.48200
N175        N  0.40984928  0.94041014  0.06545349     0.07070
N176        N  0.56176405  0.94066145  0.89315213    -0.19810
N177        N  0.40461417  0.05868338  0.94047094    -0.20300
N178        N  0.60225695  0.93987403  0.93369181     0.06710
H179        H  0.54421354  0.89362969  0.81331609     0.12600
H180        H  0.68366380  0.89489929  0.04035159     0.12640
N181        N  0.45026337  0.94137753  0.10606890    -0.20350
N182        N  0.60743286  0.05926646  0.05771677    -0.19960
N183        N  0.44340350  0.93968943  0.89866596     0.07080
C184        C  0.39152663  0.12939720  0.12205750     0.48470
C185        C  0.56936367  0.09980851  0.85318310    -0.01210
N186        N  0.60740528  0.94142841  0.05821894    -0.19960
H187        H  0.68394884  0.10556534  0.03996116     0.12620
N188        N  0.37229182  0.10096259  0.07333243    -0.41180
H189        H  0.54406734  0.10579891  0.81269790     0.12610
C190        C  0.62050054  0.87076424  0.87649037     0.48310
C191        C  0.36712317  0.09955576  0.93204404    -0.00710
Co192      Co  0.50241738  0.99965892  0.89299259     0.73820
N193        N  0.63950314  0.10050674  0.92475135    -0.40900
C194        C  0.39181437  0.87116332  0.12255844     0.48570
N195        N  0.43544816  0.89895272  0.85925320    -0.40890
Co196      Co  0.60739866  0.00006363  0.99553600     0.73890
C197        C  0.64490969  0.90057456  0.06665692    -0.01220
C198        C  0.44252550  0.10057331  0.14479585    -0.00780
N199        N  0.40457089  0.94080968  0.94097342    -0.20310
N200        N  0.57657507  0.10108213  0.13947279    -0.41070
H201        H  0.46794503  0.89414122  0.18587744     0.12580
C202        C  0.56947721  0.89956931  0.85382481    -0.01190
Cl203      Cl  0.50601040  0.00004591  0.99934302    -0.44190
C204        C  0.62022121  0.12881389  0.87594658     0.48340
H205        H  0.32810223  0.89443738  0.95878556     0.12550
N206        N  0.63977495  0.89917880  0.92522179    -0.40900
C207        C  0.65812221  0.83887232  0.16099003     0.03240
C208        C  0.35351070  0.83856244  0.83803559     0.03240
C209        C  0.35386124  0.16117827  0.83766644     0.03240
C210        C  0.65932876  0.83849482  0.83898846     0.03240
C211        C  0.35289947  0.83878247  0.15982714     0.03240
C212        C  0.50665990  0.71932301  0.72286272     0.06290
C213        C  0.50746332  0.76328289  0.76482665     0.06290
C214        C  0.35262498  0.16161051  0.15952633     0.03240
C215        C  0.65847494  0.16152401  0.16066613     0.03240
C216        C  0.00748763  0.76325327  0.26482502     0.06290
C217        C  0.00665836  0.71927325  0.22289344     0.06290
C218        C  0.73257448  0.00005759  0.22957932     0.06290
C219        C  0.77947678  0.99999609  0.26905015     0.06290
C220        C  0.74132736  0.27416848  0.49713569     0.06290
C221        C  0.78379737  0.23357476  0.49723546     0.06290
C222        C  0.27052886  0.72563952  0.50127694     0.06290
C223        C  0.22815778  0.76633422  0.50120885     0.06290
C224        C  0.85393205  0.16113575  0.33762494     0.03240
C225        C  0.88924751  0.12858542  0.37850233     0.48190
N226        N  0.94353830  0.05957631  0.39801547     0.07080
C227        C  0.94273381  0.90018441  0.64535402    -0.00800
H228        H  0.96785172  0.10646023  0.68527747     0.12570
C229        C  0.14520421  0.10006212  0.56605219    -0.01150
Co230      Co  0.90478543  0.99999625  0.50304430     0.74180
N231        N  0.95037678  0.05940293  0.60543781    -0.20330
Co232      Co  0.00972752  0.00039162  0.60559547     0.74070
C233        C  0.12322874  0.12920449  0.61948418     0.48290
N234        N  0.10230706  0.05964982  0.43309932     0.06690
N235        N  0.06873041  0.06034945  0.59991971     0.06800
N236        N  0.87265426  0.89952847  0.57372561    -0.41180
H237        H  0.82852365  0.10517852  0.45830257     0.12560
N238        N  0.90991832  0.06018850  0.56486346     0.07080
N239        N  0.06874804  0.94045992  0.60045486     0.06820
C240        C  0.12297020  0.87142334  0.62001429     0.48430
N241        N  0.06186862  0.05866121  0.39250901    -0.19780
C242        C  0.86708964  0.89995402  0.43252638    -0.00700
N243        N  0.93567734  0.10030549  0.35850780    -0.40890
N244        N  0.07653758  0.89971442  0.63995417    -0.41110
C245        C  0.88896135  0.87082318  0.37906128     0.48200
N246        N  0.90999268  0.94036826  0.56535808     0.07070
N247        N  0.06190587  0.94063812  0.39306242    -0.19810
N248        N  0.90476954  0.05864563  0.44038454    -0.20300
N249        N  0.10240454  0.93984926  0.43359610     0.06710
H250        H  0.04429599  0.89356924  0.31327248     0.12600
H251        H  0.18381236  0.89483730  0.54029050     0.12640
N252        N  0.95040242  0.94133154  0.60597785    -0.20350
N253        N  0.10758384  0.05923879  0.55762866    -0.19960
N254        N  0.94354018  0.93965377  0.39855980     0.07080
C255        C  0.89160433  0.12930802  0.62202126     0.48470
C256        C  0.06945427  0.09980962  0.35312826    -0.01210
N257        N  0.10756331  0.94139547  0.55812740    -0.19960
H258        H  0.18407536  0.10558729  0.53989303     0.12620
N259        N  0.87239486  0.10088820  0.57327662    -0.41180
H260        H  0.04413590  0.10581640  0.31266125     0.12610
C261        C  0.12058700  0.87069150  0.37643855     0.48310
C262        C  0.86726616  0.09950885  0.43197874    -0.00710
Co263      Co  0.00255978  0.99962485  0.39288604     0.73820
N264        N  0.13959952  0.10051963  0.42468960    -0.40900
C265        C  0.89187554  0.87119057  0.62252462     0.48570
N266        N  0.93553669  0.89893744  0.35913406    -0.40890
Co267      Co  0.10755940  0.00003432  0.49544085     0.73890
C268        C  0.14504988  0.90052592  0.56657969    -0.01220
C269        C  0.94262168  0.10050746  0.64474746    -0.00780
N270        N  0.90472903  0.94077624  0.44088837    -0.20310
N271        N  0.07665567  0.10107188  0.63934993    -0.41070
H272        H  0.96800588  0.89415638  0.68585001     0.12580
C273        C  0.06958021  0.89951824  0.35376518    -0.01190
Cl274      Cl  0.00616314  0.00001153  0.49924159    -0.44190
C275        C  0.12028811  0.12884357  0.37590690     0.48340
H276        H  0.82824397  0.89444481  0.45872863     0.12550
N277        N  0.13988879  0.89911928  0.42515097    -0.40900
C278        C  0.85355777  0.83856497  0.33797897     0.03240
C279        C  0.15940190  0.83842953  0.33892254     0.03240
C280        C  0.15818228  0.83881881  0.66093150     0.03240
C281        C  0.85269500  0.16153383  0.65947724     0.03240
C282        C  0.85294576  0.83880637  0.65978037     0.03240
C283        C  0.74116323  0.72590205  0.49957784     0.06290
C284        C  0.78357901  0.76653442  0.49786251     0.06290
C285        C  0.15911885  0.16127384  0.33860110     0.03240
C286        C  0.15851813  0.16152604  0.66060500     0.03240
C287        C  0.00508617  0.71958011  0.77639669     0.06290
C288        C  0.00437618  0.76349939  0.73433412     0.06290
C289        C  0.73301491  0.99998576  0.76954083     0.06290
C290        C  0.77903498  0.00005789  0.72892026     0.06290
C291        C  0.77047247  0.72569539  0.00134067     0.06290
C292        C  0.72810325  0.76639609  0.00126873     0.06290
C293        C  0.89709891  0.80252816  0.69612232    -0.07540
C294        C  0.94580284  0.78509685  0.71268670    -0.09100
C295        C  0.82084613  0.89087649  0.69151948    -0.07540
C296        C  0.80319701  0.94071861  0.70758272    -0.09100
C297        C  0.82027338  0.80527425  0.60996787    -0.07540
C298        C  0.80561841  0.78930451  0.55807543    -0.09100
C299        C  0.80314579  0.05945761  0.70748217    -0.07540
C300        C  0.82076006  0.10932238  0.69130859    -0.09100
C301        C  0.11082557  0.80533534  0.69625534    -0.07540
C302        C  0.06202384  0.78772256  0.71247759    -0.09100
C303        C  0.81968170  0.80216518  0.38437645    -0.07540
C304        C  0.80447409  0.78592706  0.43600285    -0.09100
C305        C  0.20711398  0.78858117  0.44034515    -0.07540
C306        C  0.19235159  0.80475817  0.38852058    -0.09100
C307        C  0.19156587  0.80240256  0.61426445    -0.07540
C308        C  0.20639297  0.78633479  0.56248544    -0.09100
C309        C  0.80562896  0.21360797  0.43599629    -0.07540
C310        C  0.82051606  0.19753002  0.38425441    -0.09100
C311        C  0.80489789  0.21136969  0.55808718    -0.07540
C312        C  0.81972437  0.19517594  0.60988001    -0.09100
C313        C  0.80401953  0.94060843  0.28995069    -0.07540
C314        C  0.82181084  0.89075094  0.30591889    -0.09100
C315        C  0.80407271  0.05933784  0.28980239    -0.07540
C316        C  0.82191527  0.10917564  0.30563420    -0.09100
C317        C  0.11502824  0.80218742  0.30270550    -0.07540
C318        C  0.06620042  0.78482643  0.28631304    -0.09100
C319        C  0.90090276  0.80499930  0.30269753    -0.07540
C320        C  0.94979861  0.78748265  0.28661617    -0.09100
C321        C  0.69025528  0.10934685  0.19274186    -0.07540
C322        C  0.70803813  0.05947017  0.20869237    -0.09100
C323        C  0.70890238  0.94057469  0.79097505    -0.07540
C324        C  0.69128308  0.89070299  0.80714389    -0.09100
C325        C  0.69227619  0.80482794  0.88859146    -0.07540
C326        C  0.70705229  0.78864419  0.94040884    -0.09100
C327        C  0.56616220  0.78486359  0.78633939    -0.07540
C328        C  0.61497352  0.80224389  0.80275937    -0.09100
C329        C  0.40087738  0.80501445  0.80275145    -0.07540
C330        C  0.44976550  0.78749227  0.78663915    -0.09100
C331        C  0.70633782  0.78640480  0.06253835    -0.07540
C332        C  0.69150393  0.80247401  0.11431171    -0.09100
C333        C  0.69015359  0.89083561  0.19300698    -0.07540
C334        C  0.70798518  0.94069233  0.20883124    -0.09100
C335        C  0.70885300  0.05933858  0.79086525    -0.07540
C336        C  0.69119941  0.10918944  0.80691196    -0.09100
C337        C  0.40113832  0.19466864  0.80229777    -0.07540
C338        C  0.44992423  0.21225982  0.78605577    -0.09100
C339        C  0.56612737  0.21490548  0.78576663    -0.07540
C340        C  0.61484290  0.19748330  0.80232420    -0.09100
C341        C  0.44577623  0.78509667  0.21270923    -0.07540
C342        C  0.39706313  0.80251438  0.19616243    -0.09100
C343        C  0.61079293  0.80537109  0.19631009    -0.07540
C344        C  0.56199064  0.78775387  0.21250383    -0.09100
C345        C  0.20802444  0.94066552  0.70877586    -0.07540
C346        C  0.19020643  0.89079974  0.69294682    -0.09100
C347        C  0.19029448  0.10933952  0.69267700    -0.07540
C348        C  0.20806562  0.05945752  0.70863091    -0.09100
C349        C  0.30402324  0.05935387  0.78984151    -0.07540
C350        C  0.32185231  0.10920022  0.80567862    -0.09100
C351        C  0.30398250  0.94061178  0.78999671    -0.07540
C352        C  0.32176452  0.89075112  0.80597206    -0.09100
C353        C  0.11523974  0.68216448  0.18627397    -0.07540
C354        C  0.06485000  0.69640892  0.20081153    -0.09100
C355        C  0.80924359  0.68832428  0.11193352    -0.07540
C356        C  0.79185893  0.70440959  0.06154932    -0.09100
C357        C  0.94782650  0.69722556  0.20179399    -0.07540
C358        C  0.89740242  0.68279447  0.18756867    -0.09100
C359        C  0.81091375  0.39354853  0.80933683    -0.07540
C360        C  0.79629452  0.44380297  0.79575807    -0.09100
C361        C  0.06394058  0.69754330  0.79756264    -0.07540
C362        C  0.11442809  0.68312671  0.81165684    -0.09100
C363        C  0.81089682  0.68818467  0.89135680    -0.07540
C364        C  0.79361773  0.70464835  0.94167641    -0.09100
C365        C  0.89627335  0.68253484  0.81278727    -0.07540
C366        C  0.94676022  0.69678338  0.79843294    -0.09100
C367        C  0.80743989  0.60998316  0.80856394    -0.07540
C368        C  0.79206577  0.56010648  0.79444496    -0.09100
C369        C  0.21812654  0.56010625  0.79317299    -0.07540
C370        C  0.20274720  0.60998284  0.80721415    -0.09100
C371        C  0.21392843  0.44388763  0.79446330    -0.07540
C372        C  0.19929696  0.39363711  0.80794996    -0.09100
C373        C  0.79781442  0.55606269  0.20407772    -0.07540
C374        C  0.81241335  0.60634240  0.19065157    -0.09100
C375        C  0.79360749  0.43981703  0.20536253    -0.07540
C376        C  0.80894856  0.38990994  0.19138365    -0.09100
C377        C  0.11108338  0.19504686  0.69585142    -0.07540
C378        C  0.06217461  0.21256560  0.71192775    -0.09100
C379        C  0.94577798  0.21517836  0.71214052    -0.07540
C380        C  0.89697436  0.19781137  0.69572524    -0.09100
C381        C  0.94688564  0.30353029  0.79769861    -0.07540
C382        C  0.89647199  0.31776742  0.81220447    -0.09100
C383        C  0.06391849  0.30278746  0.79681016    -0.07540
C384        C  0.11433370  0.31720956  0.81103612    -0.09100
C385        C  0.70736147  0.21414094  0.06253291    -0.07540
C386        C  0.69227156  0.19794266  0.11421625    -0.09100
C387        C  0.69166589  0.19481257  0.88847646    -0.07540
C388        C  0.70619884  0.21073521  0.94042148    -0.09100
C389        C  0.79452963  0.29597595  0.05788786    -0.07540
C390        C  0.81193095  0.31212171  0.10826484    -0.09100
C391        C  0.80830068  0.31107080  0.88770043    -0.07540
C392        C  0.79109956  0.29465844  0.93804583    -0.09100
C393        C  0.22056585  0.70537822  0.06043405    -0.07540
C394        C  0.20331796  0.68889288  0.11072714    -0.09100
C395        C  0.21719631  0.70404435  0.94063951    -0.07540
C396        C  0.19974982  0.68779208  0.89031904    -0.09100
C397        C  0.32022815  0.80524656  0.11002288    -0.07540
C398        C  0.30558920  0.78928664  0.05812402    -0.09100
C399        C  0.31963833  0.80214429  0.88441842    -0.07540
C400        C  0.30444386  0.78590581  0.93604909    -0.09100
C401        C  0.21960373  0.43985237  0.20383381    -0.07540
C402        C  0.20424818  0.38996628  0.18977647    -0.09100
C403        C  0.20075680  0.60638933  0.18901114    -0.07540
C404        C  0.21536301  0.55612607  0.20252961    -0.09100
C405        C  0.19231359  0.19796499  0.61417297    -0.07540
C406        C  0.20739128  0.21416663  0.56248658    -0.09100
C407        C  0.20623128  0.21075603  0.44037307    -0.07540
C408        C  0.19171845  0.19484162  0.38842115    -0.09100
C409        C  0.61105664  0.19506325  0.19590335    -0.07540
C410        C  0.56213959  0.21257800  0.21194647    -0.09100
C411        C  0.44573764  0.21522626  0.21215722    -0.07540
C412        C  0.39691818  0.19788089  0.19576554    -0.09100
C413        C  0.11546363  0.31742184  0.18566695    -0.07540
C414        C  0.06498300  0.30320575  0.20001450    -0.09100
C415        C  0.94997089  0.21223708  0.28604143    -0.07540
C416        C  0.90118444  0.19464330  0.30226013    -0.09100
C417        C  0.89729342  0.31675286  0.18692621    -0.07540
C418        C  0.94780791  0.30236996  0.20098086    -0.09100
C419        C  0.11489144  0.19750223  0.30228340    -0.07540
C420        C  0.06616716  0.21491166  0.28574650    -0.09100
C421        C  0.32081526  0.89086694  0.19155545    -0.07540
C422        C  0.30319708  0.94072842  0.20758854    -0.09100
C423        C  0.20886268  0.05933583  0.29084961    -0.07540
C424        C  0.19123957  0.10920412  0.30687120    -0.09100
C425        C  0.32071222  0.10937317  0.19134614    -0.07540
C426        C  0.30313266  0.05948528  0.20749247    -0.09100
C427        C  0.20892279  0.94055538  0.29094851    -0.07540
C428        C  0.19133653  0.89066081  0.30708829    -0.09100
C429        C  0.20246483  0.31163516  0.88663447    -0.07540
C430        C  0.21986633  0.29550246  0.93698662    -0.09100
C431        C  0.30483660  0.21143804  0.05813150    -0.07540
C432        C  0.31965030  0.19525434  0.10993261    -0.09100
C433        C  0.20076465  0.31173774  0.10708919    -0.07540
C434        C  0.21807729  0.29525082  0.05680642    -0.09100
C435        C  0.32044359  0.19759237  0.88428285    -0.07540
C436        C  0.30556676  0.21367429  0.93602947    -0.09100
C437        C  0.61522289  0.68218038  0.68619641    -0.07540
C438        C  0.56485229  0.69646465  0.70076733    -0.09100
C439        C  0.70071765  0.60637475  0.68895657    -0.07540
C440        C  0.71534100  0.55612365  0.70252409    -0.09100
C441        C  0.72057152  0.70539344  0.56037705    -0.07540
C442        C  0.70330925  0.68889146  0.61066110    -0.09100
C443        C  0.44781423  0.30234978  0.70090657    -0.07540
C444        C  0.39731409  0.31676157  0.68683182    -0.09100
C445        C  0.29365467  0.43983198  0.70537710    -0.07540
C446        C  0.30900816  0.38994388  0.69133772    -0.09100
C447        C  0.29452406  0.29601749  0.55783026    -0.07540
C448        C  0.31192257  0.31215105  0.60821102    -0.09100
C449        C  0.69938626  0.39358817  0.30791387    -0.07540
C450        C  0.71398700  0.44386335  0.29448761    -0.09100
C451        C  0.71991084  0.29542960  0.43693705    -0.07540
C452        C  0.70251238  0.31156836  0.38658281    -0.09100
C453        C  0.61437781  0.31718925  0.31096302    -0.07540
C454        C  0.56393842  0.30281325  0.29676412    -0.09100
C455        C  0.44677712  0.69673355  0.29836229    -0.07540
C456        C  0.39628132  0.68250735  0.31269158    -0.09100
C457        C  0.31094514  0.68815031  0.39129134    -0.07540
C458        C  0.29367731  0.70460095  0.44161598    -0.09100
C459        C  0.30742861  0.60998682  0.30849771    -0.07540
C460        C  0.29205624  0.56010305  0.29442742    -0.09100
C461        C  0.69975834  0.68780191  0.39026327    -0.07540
C462        C  0.71720604  0.70406536  0.44058123    -0.09100
C463        C  0.61446438  0.68312007  0.31155827    -0.07540
C464        C  0.56396389  0.69751430  0.29748223    -0.09100
C465        C  0.70282083  0.60999434  0.30716975    -0.07540
C466        C  0.71818502  0.56009570  0.29319689    -0.09100
C467        C  0.31087620  0.39354174  0.30927227    -0.07540
C468        C  0.29627976  0.44380939  0.29574020    -0.09100
C469        C  0.29109294  0.29469133  0.43798735    -0.07540
C470        C  0.30828185  0.31108316  0.38763185    -0.09100
C471        C  0.39645257  0.31778638  0.31212987    -0.07540
C472        C  0.44688495  0.30358493  0.29765897    -0.09100
C473        C  0.71958101  0.43984049  0.70383032    -0.07540
C474        C  0.70422142  0.38996307  0.68972167    -0.09100
C475        C  0.56498300  0.30315799  0.69995211    -0.07540
C476        C  0.61545599  0.31739176  0.68558286    -0.09100
C477        C  0.70079719  0.31169289  0.60703916    -0.07540
C478        C  0.71812418  0.29518852  0.55676453    -0.09100
C479        C  0.44784930  0.69726177  0.70173759    -0.07540
C480        C  0.39744906  0.68279008  0.68748209    -0.09100
C481        C  0.30930049  0.68827722  0.61186202    -0.07540
C482        C  0.29191481  0.70435460  0.56147908    -0.09100
C483        C  0.31250039  0.60631604  0.69059767    -0.07500
C484        C  0.29786433  0.55606394  0.70408811    -0.09100
loop_ 
_geom_bond_atom_site_label_1 
_geom_bond_atom_site_label_2 
_geom_bond_distance 
_geom_bond_site_symmetry_2 
_ccdc_geom_bond_type 
C1           C52   1.430       .  S
C1          C480   1.557       .  S
C1          C481   1.524       .  S
C1          C483   1.523       .  S
C2           C58   1.433       .  S
C2           N20   1.333       .  A
C2           C39   1.458       .  S
N3           N20   1.294       .  A
N3           N25   1.299       .  A
N3          Co40   1.933       .  S
C4           N29   1.298       .  A
C4           C42   1.444       .  S
C4           H49   1.080       .  S
H5           C46   1.080       .  S
C6           N30   1.295       .  A
C6           C10   1.457       .  S
C6           H35   1.080       .  S
Co7          N25   1.940       .  S
Co7          N15   1.956       .  S
Co7          N47   1.941       .  S
Co7          N23   1.956       .  S
Co7         Cl51   2.342       .  S
N8           C46   1.299       .  A
N8           N15   1.299       .  A
N8           Co9   1.918       .  S
Co9          N12   1.932       .  S
Co9          N29   1.916       .  S
Co9          N16   1.934       .  S
Co9         Cl51   2.366       .  S
C10          C60   1.432       .  S
C10          N48   1.333       .  A
N11          N18   1.299       .  A
N11          N41   1.291       .  A
N11         Co44   1.956       .  S
N12          N30   1.299       .  A
N12          N48   1.293       .  A
N13          C42   1.341       .  A
N13          N23   1.291       .  A
H14          C39   1.080       .  S
N15          N36   1.291       .  A
N16          N34   1.299       .  A
N16          N21   1.294       .  A
C17          C55   1.433       .  S
C17          N21   1.333       .  A
C17          C45   1.457       .  S
N18          C33   1.298       .  A
N18         Co40   1.917       .  S
C19          N47   1.296       .  A
C19          C22   1.458       .  S
C19          H53   1.080       .  S
C22          C57   1.432       .  S
C22          N43   1.332       .  A
N23          N29   1.299       .  A
N24          C50   1.299       .  A
N24          N26   1.299       .  A
N24         Co40   1.919       .  S
N25          C39   1.295       .  A
N26          N54   1.291       .  A
N26         Co44   1.956       .  S
H27          C50   1.080       .  S
H28          C45   1.080       .  S
N30         Co44   1.941       .  S
N31          N43   1.293       .  A
N31          N47   1.299       .  A
N31         Co40   1.932       .  S
C32          C56   1.431       .  S
C32          N36   1.341       .  A
C32          C46   1.444       .  S
C33          C52   1.444       .  S
C33          H37   1.080       .  S
N34          C45   1.295       .  A
N34         Co44   1.940       .  S
C38          C61   1.431       .  S
C38          N54   1.341       .  A
C38          C50   1.444       .  S
Co40        Cl51   2.366       .  S
N41          C52   1.341       .  A
C42          C59   1.430       .  S
Co44        Cl51   2.342       .  S
C55         C474   1.521       .  S
C55         C476   1.559       .  S
C55         C477   1.529       .  S
C56         C467   1.524       .  S
C56         C470   1.524       .  S
C56         C471   1.558       .  S
C57         C461   1.530       .  S
C57         C463   1.558       .  S
C57         C465   1.520       .  S
C58         C456   1.559       .  S
C58         C457   1.530       .  S
C58         C459   1.520       .  S
C59         C449   1.523       .  S
C59         C452   1.524       .  S
C59         C453   1.557       .  S
C60         C444   1.559       .  S
C60         C446   1.520       .  S
C60         C448   1.529       .  S
C61         C437   1.558       .  S
C61         C439   1.524       .  S
C61         C442   1.524       .  S
C62          C63   1.360       .  D
C62         C431   1.521   1_556  S
C62         C436   1.518       .  S
C63         C430   1.504       .  S
C63         C434   1.505   1_556  S
C64          C65   1.397   1_565  D
C64         C423   1.552   1_565  S
C64         C427   1.553       .  S
C65         C422   1.552   1_545  S
C65         C426   1.553       .  S
C66          C67   1.374       .  D
C66         C415   1.530   1_455  S
C66         C420   1.528       .  S
C67         C414   1.533       .  S
C67         C418   1.534   1_455  S
C68          C69   1.374       .  D
C68         C454   1.532       .  S
C68         C472   1.533       .  S
C69         C410   1.532       .  S
C69         C411   1.529       .  S
C70          C71   1.360       .  D
C70         C447   1.506       .  S
C70         C469   1.504       .  S
C71         C406   1.519       .  S
C71         C407   1.521       .  S
C72          C73   1.346       .  D
C72         C401   1.504       .  S
C72         C404   1.503       .  S
C73         C460   1.504       .  S
C73         C468   1.503       .  S
C74          C75   1.360       .  D
C74         C398   1.521   1_556  S
C74         C400   1.519       .  S
C75         C393   1.504   1_556  S
C75         C395   1.506       .  S
C76          C77   1.360   1_554  D
C76         C385   1.519       .  S
C76         C388   1.521   1_554  S
C77         C389   1.506   1_556  S
C77         C392   1.504       .  S
C78          C79   1.374       .  D
C78         C381   1.533   1_455  S
C78         C383   1.532       .  S
C79         C378   1.532       .  S
C79         C379   1.529   1_455  S
C80          C81   1.345       .  D
C80         C450   1.502       .  S
C80         C466   1.503       .  S
C81         C373   1.502       .  S
C81         C375   1.503       .  S
C82          C83   1.346       .  D
C82         C445   1.503       .  S
C82         C484   1.502       .  S
C83         C369   1.503       .  S
C83         C371   1.502       .  S
C84          C85   1.433       .  S
C84         C363   1.530       .  S
C84         C365   1.559       .  S
C84         C367   1.521       .  S
C85         N103   1.333       .  A
C85         C122   1.457       .  S
N86         N103   1.294       .  A
N86         N108   1.299       .  A
N86        Co123   1.934   1_655  S
C87         N112   1.298       .  A
C87         C125   1.444       .  S
C87         H132   1.080       .  S
H88         C129   1.080       .  S
C89         N113   1.295       .  A
C89          C93   1.457       .  S
C89         H118   1.080       .  S
Co90        N108   1.940   1_455  S
Co90         N98   1.956   1_455  S
Co90        N130   1.941       .  S
Co90        N106   1.956       .  S
Co90       Cl134   2.342       .  S
N91         C129   1.299       .  A
N91          N98   1.299       .  A
N91         Co92   1.919   1_656  S
Co92         N95   1.932   1_455  S
Co92        N112   1.917   1_554  S
Co92         N99   1.934       .  S
Co92       Cl134   2.366   1_554  S
C93         C138   1.432       .  S
C93         N131   1.332       .  A
N94         N101   1.299       .  A
N94         N124   1.291       .  A
N94        Co127   1.956   1_655  S
N95         N113   1.299       .  A
N95         N131   1.293       .  A
N96         C125   1.341       .  A
N96         N106   1.291       .  A
H97         C122   1.080       .  S
N98         N119   1.291       .  A
N99         N117   1.299       .  A
N99         N104   1.294       .  A
C100        C146   1.433       .  S
C100        N104   1.333       .  A
C100        C128   1.458       .  S
N101        C116   1.298       .  A
N101       Co123   1.916   1_654  S
C102        N130   1.296       .  A
C102        C105   1.458       .  S
C102        H136   1.080       .  S
C105        C140   1.432       .  S
C105        N126   1.333       .  A
N106        N112   1.299       .  A
N107        C133   1.299       .  A
N107        N109   1.299       .  A
N107       Co123   1.919   1_554  S
N108        C122   1.295       .  A
N109        N137   1.291       .  A
N109       Co127   1.956       .  S
H110        C133   1.080       .  S
H111        C128   1.080       .  S
N113       Co127   1.941   1_655  S
N114        N126   1.293       .  A
N114        N130   1.299       .  A
N114       Co123   1.932       .  S
C115        C141   1.431       .  S
C115        N119   1.341       .  A
C115        C129   1.444       .  S
C116        C135   1.444       .  S
C116        H120   1.080       .  S
N117        C128   1.295       .  A
N117       Co127   1.940       .  S
C121        C145   1.431       .  S
C121        N137   1.341       .  A
C121        C133   1.444       .  S
Co123      Cl134   2.366       .  S
N124        C135   1.341       .  A
C125        C139   1.430       .  S
Co127      Cl134   2.342   1_554  S
C135        C142   1.430       .  S
C138        C376   1.520       .  S
C138        C390   1.529       .  S
C138        C417   1.559       .  S
C139        C372   1.523       .  S
C139        C384   1.557       .  S
C139        C429   1.524       .  S
C140        C362   1.558       .  S
C140        C370   1.520       .  S
C140        C396   1.529       .  S
C141        C359   1.524       .  S
C141        C382   1.558       .  S
C141        C391   1.524       .  S
C142        C355   1.524       .  S
C142        C358   1.558       .  S
C142        C374   1.523       .  S
C143        C144   1.346       .  D
C143        C360   1.503       .  S
C143        C368   1.504       .  S
C144        C440   1.503       .  S
C144        C473   1.504       .  S
C145        C353   1.558       .  S
C145        C394   1.524       .  S
C145        C403   1.524       .  S
C146        C402   1.520       .  S
C146        C413   1.558       .  S
C146        C433   1.529       .  S
C147        C148   1.398   1_565  D
C147        C349   1.552   1_565  S
C147        C351   1.553       .  S
C148        C345   1.552   1_545  S
C148        C348   1.553       .  S
C149        C150   1.374       .  D
C149        C341   1.528       .  S
C149        C344   1.530       .  S
C150        C455   1.534       .  S
C150        C464   1.533       .  S
C151        C152   1.374       .  D
C151        C443   1.534       .  S
C151        C475   1.534       .  S
C152        C338   1.530       .  S
C152        C339   1.528       .  S
C153        C204   1.433       .  S
C153        C336   1.578       .  S
C153        C340   1.549       .  S
C153        C387   1.546       .  S
C154        C209   1.433       .  S
C154        N172   1.337       .  A
C154        C191   1.452       .  S
N155        N172   1.295       .  A
N155        N177   1.301       .  A
N155       Co192   1.951   1_545  S
C156        N181   1.299       .  A
C156        C194   1.450       .  S
C156        H201   1.081       .  S
H157        C198   1.080       .  S
C158        N182   1.298       .  A
C158        C162   1.452       .  S
C158        H187   1.081       .  S
Co159       N177   1.935   1_554  S
Co159       N167   1.952       .  S
Co159       N199   1.938   1_544  S
Co159       N175   1.949   1_545  S
Co159      Cl203   2.360   1_554  S
N160        C198   1.298       .  A
N160        N167   1.301       .  A
N160       Co161   1.937       .  S
Co161       N164   1.951       .  S
Co161       N181   1.938   1_545  S
Co161       N168   1.951   1_545  S
Co161      Cl203   2.354   1_554  S
C162        C215   1.434       .  S
C162        N200   1.337       .  A
N163        N170   1.301       .  A
N163        N193   1.294       .  A
N163       Co196   1.950       .  S
N164        N182   1.301       .  A
N164        N200   1.295       .  A
N165        C194   1.338       .  A
N165        N175   1.294       .  A
H166        C191   1.081       .  S
N167        N188   1.294       .  A
N168        N186   1.301       .  A
N168        N173   1.295       .  A
C169        C207   1.433       .  S
C169        N173   1.337       .  A
C169        C197   1.452       .  S
N170        C185   1.299       .  A
N170       Co192   1.937   1_545  S
C171        N199   1.298       .  A
C171        C174   1.452       .  S
C171        H205   1.081       .  S
C174        C208   1.434       .  S
C174        N195   1.337       .  A
N175        N181   1.301       .  A
N176        C202   1.298       .  A
N176        N178   1.301       .  A
N176       Co192   1.937       .  S
N177        C191   1.297       .  A
N178        N206   1.295       .  A
N178       Co196   1.952   1_565  S
H179        C202   1.080       .  S
H180        C197   1.081       .  S
N182       Co196   1.938   1_554  S
N183        N195   1.295       .  A
N183        N199   1.301       .  A
N183       Co192   1.951       .  S
C184        C214   1.434       .  S
C184        N188   1.339       .  A
C184        C198   1.450       .  S
C185        C204   1.449       .  S
C185        H189   1.081       .  S
N186        C197   1.297       .  A
N186       Co196   1.935   1_564  S
C190        C210   1.434       .  S
C190        N206   1.339       .  A
C190        C202   1.449       .  S
Co192      Cl203   2.354   1_565  S
N193        C204   1.338       .  A
C194        C211   1.433       .  S
Co196      Cl203   2.360       .  S
C207        C332   1.541       .  S
C207        C333   1.578       .  S
C207        C343   1.555       .  S
C208        C329   1.556       .  S
C208        C352   1.579       .  S
C208        C399   1.541       .  S
C209        C337   1.554       .  S
C209        C350   1.578       .  S
C209        C435   1.540       .  S
C210        C324   1.579       .  S
C210        C325   1.547       .  S
C210        C328   1.551       .  S
C211        C342   1.549       .  S
C211        C397   1.546       .  S
C211        C421   1.578       .  S
C212        C213   1.374       .  D
C212        C438   1.533       .  S
C212        C479   1.533       .  S
C213        C327   1.529       .  S
C213        C330   1.532       .  S
C214        C412   1.550       .  S
C214        C425   1.579       .  S
C214        C432   1.547       .  S
C215        C321   1.579       .  S
C215        C386   1.542       .  S
C215        C409   1.556       .  S
C216        C217   1.374       .  D
C216        C318   1.529       .  S
C216        C320   1.531   1_455  S
C217        C354   1.533       .  S
C217        C357   1.533   1_455  S
C218        C219   1.398   1_545  D
C218        C322   1.553       .  S
C218        C334   1.552   1_545  S
C219        C313   1.553       .  S
C219        C315   1.552   1_565  S
C220        C221   1.360       .  D
C220        C451   1.504       .  S
C220        C478   1.505       .  S
C221        C309   1.518       .  S
C221        C311   1.521       .  S
C222        C223   1.360       .  D
C222        C458   1.506       .  S
C222        C482   1.504       .  S
C223        C305   1.521       .  S
C223        C308   1.519       .  S
C224        C225   1.433       .  S
C224        C310   1.540       .  S
C224        C316   1.578       .  S
C224        C416   1.554       .  S
C225        N243   1.337       .  A
C225        C262   1.452       .  S
N226        N243   1.295       .  A
N226        N248   1.301       .  A
N226       Co263   1.951   1_645  S
C227        N252   1.299       .  A
C227        C265   1.450       .  S
C227        H272   1.081       .  S
H228        C269   1.081       .  S
C229        N253   1.298       .  A
C229        C233   1.453       .  S
C229        H258   1.081       .  S
Co230       N248   1.935   1_565  S
Co230       N238   1.952   1_565  S
Co230       N270   1.937       .  S
Co230       N246   1.949       .  S
Co230      Cl274   2.360   1_665  S
N231        C269   1.299       .  A
N231        N238   1.301       .  A
N231       Co232   1.938   1_655  S
Co232       N235   1.951       .  S
Co232       N252   1.938   1_445  S
Co232       N239   1.950   1_545  S
Co232      Cl274   2.354       .  S
C233        C286   1.434       .  S
C233        N271   1.337       .  A
N234        N241   1.301       .  A
N234        N264   1.293       .  A
N234       Co267   1.950       .  S
N235        N253   1.301       .  A
N235        N271   1.294       .  A
N236        C265   1.338       .  A
N236        N246   1.294       .  A
H237        C262   1.081       .  S
N238        N259   1.295       .  A
N239        N257   1.301       .  A
N239        N244   1.295       .  A
C240        C280   1.433       .  S
C240        N244   1.337       .  A
C240        C268   1.452       .  S
N241        C256   1.299       .  A
N241       Co263   1.937   1_545  S
C242        N270   1.298       .  A
C242        C245   1.452       .  S
C242        H276   1.081       .  S
C245        C278   1.434       .  S
C245        N266   1.337       .  A
N246        N252   1.301       .  A
N247        C273   1.298       .  A
N247        N249   1.301       .  A
N247       Co263   1.937       .  S
N248        C262   1.297       .  A
N249        N277   1.294       .  A
N249       Co267   1.952   1_565  S
H250        C273   1.080       .  S
H251        C268   1.081       .  S
N253       Co267   1.938       .  S
N254        N266   1.295       .  A
N254        N270   1.301       .  A
N254       Co263   1.952   1_655  S
C255        C281   1.434       .  S
C255        N259   1.339       .  A
C255        C269   1.450       .  S
C256        C275   1.449       .  S
C256        H260   1.081       .  S
N257        C268   1.297       .  A
N257       Co267   1.935   1_565  S
C261        C279   1.434       .  S
C261        N277   1.339       .  A
C261        C273   1.449       .  S
Co263      Cl274   2.354   1_565  S
N264        C275   1.338       .  A
C265        C282   1.433       .  S
Co267      Cl274   2.360       .  S
C275        C285   1.433       .  S
C278        C303   1.542       .  S
C278        C314   1.579       .  S
C278        C319   1.556       .  S
C279        C306   1.547       .  S
C279        C317   1.551       .  S
C279        C428   1.579       .  S
C280        C301   1.555       .  S
C280        C307   1.541       .  S
C280        C346   1.578       .  S
C281        C300   1.579       .  S
C281        C312   1.547       .  S
C281        C380   1.550       .  S
C282        C293   1.549       .  S
C282        C295   1.578       .  S
C282        C297   1.546       .  S
C283        C284   1.360       .  D
C283        C441   1.504       .  S
C283        C462   1.506       .  S
C284        C298   1.521       .  S
C284        C304   1.519       .  S
C285        C408   1.546       .  S
C285        C419   1.549       .  S
C285        C424   1.578       .  S
C286        C347   1.579       .  S
C286        C377   1.556       .  S
C286        C405   1.542       .  S
C287        C288   1.374       .  D
C287        C361   1.533       .  S
C287        C366   1.534   1_455  S
C288        C294   1.528   1_455  S
C288        C302   1.531       .  S
C289        C290   1.398   1_565  D
C289        C323   1.553       .  S
C289        C335   1.552   1_565  S
C290        C296   1.552   1_545  S
C290        C299   1.553       .  S
C291        C292   1.360       .  D
C291        C356   1.504       .  S
C291        C364   1.506   1_554  S
C292        C326   1.521   1_554  S
C292        C331   1.519       .  S
C293        C294   1.257       .  T
C295        C296   1.270       .  T
C297        C298   1.253       .  T
C299        C300   1.271       .  T
C301        C302   1.258       .  T
C303        C304   1.253       .  T
C305        C306   1.253       .  T
C307        C308   1.252       .  T
C309        C310   1.252       .  T
C311        C312   1.253       .  T
C313        C314   1.271       .  T
C315        C316   1.270       .  T
C317        C318   1.258       .  T
C319        C320   1.258       .  T
C321        C322   1.271       .  T
C323        C324   1.271       .  T
C325        C326   1.253       .  T
C327        C328   1.258       .  T
C329        C330   1.258       .  T
C331        C332   1.252       .  T
C333        C334   1.270       .  T
C335        C336   1.270       .  T
C337        C338   1.257       .  T
C339        C340   1.257       .  T
C341        C342   1.257       .  T
C343        C344   1.258       .  T
C345        C346   1.271       .  T
C347        C348   1.271       .  T
C349        C350   1.270       .  T
C351        C352   1.271       .  T
C353        C354   1.259       .  T
C355        C356   1.242       .  T
C357        C358   1.259       .  T
C359        C360   1.243       .  T
C361        C362   1.260       .  T
C363        C364   1.243       .  T
C365        C366   1.260       .  T
C367        C368   1.243       .  T
C369        C370   1.243       .  T
C371        C372   1.243       .  T
C373        C374   1.243       .  T
C375        C376   1.243       .  T
C377        C378   1.259       .  T
C379        C380   1.257       .  T
C381        C382   1.259       .  T
C383        C384   1.259       .  T
C385        C386   1.253       .  T
C387        C388   1.253       .  T
C389        C390   1.243       .  T
C391        C392   1.242       .  T
C393        C394   1.242       .  T
C395        C396   1.243       .  T
C397        C398   1.253       .  T
C399        C400   1.253       .  T
C401        C402   1.243       .  T
C403        C404   1.243       .  T
C405        C406   1.253       .  T
C407        C408   1.253       .  T
C409        C410   1.258       .  T
C411        C412   1.257       .  T
C413        C414   1.260       .  T
C415        C416   1.257       .  T
C417        C418   1.260       .  T
C419        C420   1.257       .  T
C421        C422   1.270       .  T
C423        C424   1.270       .  T
C425        C426   1.271       .  T
C427        C428   1.271       .  T
C429        C430   1.242       .  T
C431        C432   1.253       .  T
C433        C434   1.243       .  T
C435        C436   1.252       .  T
C437        C438   1.259       .  T
C439        C440   1.243       .  T
C441        C442   1.242       .  T
C443        C444   1.260       .  T
C445        C446   1.243       .  T
C447        C448   1.243       .  T
C449        C450   1.243       .  T
C451        C452   1.242       .  T
C453        C454   1.259       .  T
C455        C456   1.260       .  T
C457        C458   1.243       .  T
C459        C460   1.243       .  T
C461        C462   1.243       .  T
C463        C464   1.260       .  T
C465        C466   1.243       .  T
C467        C468   1.243       .  T
C469        C470   1.242       .  T
C471        C472   1.259       .  T
C473        C474   1.243       .  T
C475        C476   1.260       .  T
C477        C478   1.243       .  T
C479        C480   1.259       .  T
C481        C482   1.242       .  T
C483        C484   1.243       .  T
