geometry optimzed in LAMMPS
_audit_creation_date              2020-12-01 
_audit_creation_method            'lammps2cif' 
_symmetry_space_group_name_H-M    'P1' 
_symmetry_Int_Tables_number       1 
_symmetry_cell_setting            triclinic 
loop_ 
_symmetry_equiv_pos_as_xyz 
  x,y,z 
_cell_length_a                    46.86148447 
_cell_length_b                    46.800485504086254 
_cell_length_c                    46.18263240223701 
_cell_angle_alpha                 89.75972142154406 
_cell_angle_beta                  90.56069064562297 
_cell_angle_gamma                 90.01305080266819 
loop_ 
_atom_site_label 
_atom_site_type_symbol 
_atom_site_fract_x 
_atom_site_fract_y 
_atom_site_fract_z 
_atom_site_charge 
C1          C  0.38883685  0.60696103  0.61107872    -0.02300
N2          N  0.42168456  0.56215828  0.55352904    -0.05900
N3          N  0.40285356  0.56590110  0.57477535    -0.58100
N4          N  0.43868218  0.58458947  0.48261806    -0.05600
N5          N  0.43095269  0.60544327  0.46397138    -0.60200
N6          N  0.41819765  0.56507917  0.48408176    -0.05200
N7          N  0.39686479  0.57307149  0.46620079    -0.58000
N8          N  0.44026487  0.58355903  0.55261662    -0.04900
N9          N  0.43287689  0.60235033  0.57340006    -0.60500
C10         C  0.40957947  0.59100772  0.58794829     0.96200
C11         C  0.40452143  0.59838265  0.45306926     0.96000
N12         N  0.53366351  0.56217949  0.48323198    -0.06100
N13         N  0.55659253  0.56909684  0.46765037    -0.58600
N14         N  0.51457011  0.58499870  0.54667906    -0.04200
N15         N  0.52467764  0.60812069  0.56010137    -0.59900
N16         N  0.53292113  0.56362324  0.54988578    -0.06100
N17         N  0.55427517  0.57217859  0.56729620    -0.58900
N18         N  0.51365756  0.58214172  0.48024085    -0.03900
N19         N  0.52319525  0.60182751  0.46120575    -0.60000
Mn20       Mn  0.47645142  0.58385351  0.51530784     1.18400
C21         C  0.55019910  0.59342780  0.45262425     0.98300
C22         C  0.54866380  0.60006493  0.57472805     0.99000
N23         N  0.41676016  0.49156982  0.48580197    -0.06200
N24         N  0.39429083  0.48444990  0.46917732    -0.62500
N25         N  0.44017152  0.47115486  0.55304609    -0.05000
N26         N  0.43419388  0.45080111  0.57239719    -0.63100
N27         N  0.42072014  0.49151971  0.55405471    -0.05700
N28         N  0.40201594  0.48487022  0.57477964    -0.62700
N29         N  0.43621604  0.47095709  0.48526637    -0.04600
N30         N  0.42668148  0.45000074  0.46795380    -0.63400
Mn31       Mn  0.41959560  0.52777668  0.51908849     1.10700
C32         C  0.40014095  0.45815217  0.45787124     0.99500
C33         C  0.41088417  0.45968036  0.58737287     0.99600
N34         N  0.53248741  0.48883021  0.55068076    -0.05700
N35         N  0.55443969  0.47884926  0.56657036    -0.61100
N36         N  0.51068219  0.46928955  0.48526534    -0.05000
N37         N  0.51910341  0.44686822  0.46973685    -0.57800
N38         N  0.52989697  0.48998135  0.48302971    -0.06300
N39         N  0.55005141  0.48215062  0.46430321    -0.60600
N40         N  0.51126517  0.47027735  0.55222318    -0.05300
N41         N  0.51864761  0.44902990  0.57023864    -0.57800
Mn42       Mn  0.53182057  0.52608869  0.51702472     1.20200
Mn43       Mn  0.47452011  0.47074500  0.51865526     1.10100
Cl44       Cl  0.47565967  0.52720640  0.51727816    -0.85800
C45         C  0.54593222  0.45374922  0.57939370     0.96600
C46         C  0.54299021  0.45521601  0.45515922     0.96400
C47         C  0.56586900  0.43388849  0.60050289    -0.02300
C48         C  0.38055080  0.44124802  0.43455280    -0.02300
C49         C  0.57303960  0.61176334  0.43331537    -0.02300
C50         C  0.38501673  0.61735512  0.43022351    -0.02300
C51         C  0.56362777  0.43454896  0.43748406    -0.02300
C52         C  0.39231299  0.44055263  0.60955437    -0.02300
C53         C  0.56890490  0.61992097  0.59472640    -0.02300
C54         C  0.24692181  0.25741894  0.02439948     0.02500
C55         C  0.24203320  0.25689540  0.05475633     0.02400
C56         C  0.21994298  0.27364697  0.06661178    -0.18100
C57         C  0.20217071  0.29051562  0.04859250     0.02500
C58         C  0.20706109  0.29014920  0.01824899     0.02400
C59         C  0.22896921  0.27363793  0.00659882    -0.18100
H60         H  0.23193433  0.27324817  0.98334215     0.04500
H61         H  0.21694951  0.27394033  0.08983766     0.04500
C62         C  0.19166146  0.99903722  0.27117720     0.02500
C63         C  0.19522158  0.02905792  0.27466473     0.02400
C64         C  0.21565309  0.04315451  0.25770169    -0.18100
C65         C  0.23146575  0.02860716  0.23645570     0.02500
C66         C  0.22561091  0.99913325  0.23096212     0.02400
C67         C  0.20571321  0.98490240  0.24854032    -0.18100
H68         H  0.20216584  0.96221895  0.24553941     0.04500
H69         H  0.22010042  0.06546667  0.26198086     0.04500
C70         C  0.99093599  0.24810999  0.27870128     0.02500
C71         C  0.96114458  0.24569473  0.27412827     0.02400
C72         C  0.94739383  0.26254734  0.25295328    -0.18100
C73         C  0.96250979  0.28358408  0.23766315     0.02500
C74         C  0.99184307  0.28802914  0.24469933     0.02400
C75         C  0.00585288  0.26977085  0.26442871    -0.18100
H76         H  0.02828067  0.27298470  0.26936695     0.04500
H77         H  0.92476480  0.25968796  0.24886373     0.04500
C78         C  0.48349112  0.29105113  0.29385345     0.02500
C79         C  0.45447487  0.28572758  0.30101277     0.02400
C80         C  0.44041707  0.26217379  0.28822091    -0.18100
C81         C  0.45459166  0.24458374  0.26825222     0.02500
C82         C  0.48327873  0.25074580  0.26099034     0.02400
C83         C  0.49739152  0.27358719  0.27403401    -0.18100
H84         H  0.51955225  0.27770125  0.26887355     0.04500
H85         H  0.41824783  0.25801153  0.29315272     0.04500
C86         C  0.24224686  0.29157193  0.50931651     0.02500
C87         C  0.25105530  0.29098670  0.53950449     0.02400
C88         C  0.24420227  0.26609560  0.55478395    -0.18100
C89         C  0.22592460  0.24577531  0.54303254     0.02500
C90         C  0.21596678  0.24577313  0.51499594     0.02400
C91         C  0.22389242  0.26982616  0.49804123    -0.18100
H92         H  0.21579581  0.27224132  0.47620569     0.04500
H93         H  0.25238899  0.26191767  0.57608625     0.04500
C94         C  0.25578251  0.54320887  0.27419907     0.02500
C95         C  0.24774470  0.51421090  0.27851981     0.02400
C96         C  0.22440729  0.50292539  0.26259328    -0.18100
C97         C  0.20829911  0.52022540  0.24327423     0.02500
C98         C  0.21656463  0.54925743  0.23956355     0.02400
C99         C  0.24036936  0.56001056  0.25438197    -0.18100
H100        H  0.24640866  0.58216400  0.25117671     0.04500
H101        H  0.21824240  0.48085958  0.26596658     0.04500
C102        C  0.25090208  0.79740793  0.99942845     0.02500
C103        C  0.24549545  0.80163182  0.02944310     0.02400
C104        C  0.22245777  0.78734635  0.04220145    -0.18100
C105        C  0.20610390  0.76745842  0.02649720     0.02500
C106        C  0.21361765  0.76058329  0.99757364     0.02400
C107        C  0.23528863  0.77646337  0.98408721    -0.18100
H108        H  0.24006563  0.77249840  0.96154843     0.04500
H109        H  0.21811037  0.79063413  0.06495892     0.04500
C110        C  0.70976386  0.32620497  0.98398143     0.02500
C111        C  0.71495148  0.31733568  0.01301265     0.02400
C112        C  0.69816677  0.29571947  0.02516163    -0.18100
C113        C  0.67651915  0.28226552  0.00905035     0.02500
C114        C  0.67027086  0.29152775  0.98028179     0.02400
C115        C  0.68706841  0.31359909  0.96811811    -0.18100
H116        H  0.68317569  0.32024570  0.94593796     0.04500
H117        H  0.70244187  0.28878424  0.04721054     0.04500
C118        C  0.97382874  0.28673016  0.80382891     0.02500
C119        C  0.00266307  0.29500470  0.79919442     0.02400
C120        C  0.01835787  0.28119750  0.77743481    -0.18100
C121        C  0.00555316  0.26044723  0.75942516     0.02500
C122        C  0.97628703  0.25354718  0.76284545     0.02400
C123        C  0.96106896  0.26613789  0.78558629    -0.18100
H124        H  0.93879010  0.26068727  0.78842970     0.04500
H125        H  0.04054057  0.28683311  0.77428092     0.04500
C126        C  0.72750048  0.52355043  0.30458088     0.02500
C127        C  0.72022442  0.49499617  0.29711167     0.02400
C128        C  0.73524346  0.48157343  0.27443847    -0.18100
C129        C  0.75788214  0.49531474  0.25949289     0.02500
C130        C  0.76628349  0.52362341  0.26820998     0.02400
C131        C  0.75114399  0.53673075  0.29111755    -0.18100
H132        H  0.75721965  0.55795277  0.29808790     0.04500
H133        H  0.72858678  0.46041997  0.26778341     0.04500
C134        C  0.24958079  0.52867231  0.76088431     0.02500
C135        C  0.25940052  0.50128295  0.76969553     0.02400
C136        C  0.24752492  0.48831446  0.79439782    -0.18100
C137        C  0.22433954  0.50071070  0.80915162     0.02500
C138        C  0.21202281  0.52647697  0.79805367     0.02400
C139        C  0.22535090  0.54036849  0.77444889    -0.18100
H140        H  0.21680250  0.56047179  0.76653713     0.04500
H141        H  0.25647840  0.46834053  0.80218569     0.04500
C142        C  0.87806079  0.61407350  0.94104719    -0.02300
N143        N  0.03116980  0.56468304  0.98545573    -0.05900
N144        N  0.05159139  0.57120172  0.96636031    -0.58100
N145        N  0.01086880  0.58528608  0.05436414    -0.05600
N146        N  0.01840582  0.60654837  0.07240484    -0.60200
N147        N  0.03139455  0.56588852  0.05410427    -0.05200
N148        N  0.05310105  0.57458254  0.07105785    -0.58000
N149        N  0.01129756  0.58487262  0.98496446    -0.04900
N150        N  0.01903406  0.60522745  0.96584719    -0.60500
C151        C  0.04477102  0.59704831  0.95396336     0.96200
C152        C  0.04534937  0.60028498  0.08276881     0.96000
N153        N  0.91917642  0.56034804  0.05439509    -0.06100
N154        N  0.89929826  0.56647692  0.07415373    -0.58600
N155        N  0.93664984  0.58247225  0.98627447    -0.04200
N156        N  0.92643932  0.60324261  0.96903818    -0.59900
N157        N  0.91741768  0.56180462  0.98725594    -0.06100
N158        N  0.89470904  0.56887865  0.97137229    -0.58900
N159        N  0.93861900  0.58111069  0.05422408    -0.03900
N160        N  0.93180584  0.60093099  0.07382819    -0.60000
Mn161      Mn  0.97432149  0.58348782  0.01964866     1.18400
C162        C  0.90707430  0.59201100  0.08657666     0.98300
C163        C  0.90025394  0.59431613  0.95871905     0.99000
N164        N  0.02826314  0.49200268  0.05529640    -0.06200
N165        N  0.04705587  0.48426217  0.07588331    -0.62500
N166        N  0.01588254  0.47127322  0.98766112    -0.05000
N167        N  0.02831866  0.44943083  0.97388233    -0.63100
N168        N  0.03402298  0.49305664  0.98813929    -0.05700
N169        N  0.05764195  0.48653675  0.97358981    -0.62700
N170        N  0.00756437  0.47256536  0.05420271    -0.04600
N171        N  0.01169369  0.45270303  0.07463003    -0.63400
Mn172      Mn  0.03085262  0.52891287  0.02086435     1.10700
C173        C  0.03678227  0.45945616  0.08805297     0.99500
C174        C  0.05418287  0.45927889  0.96407514     0.99600
N175        N  0.91927753  0.49045885  0.98151485    -0.05700
N176        N  0.89877745  0.48417469  0.96203141    -0.61100
N177        N  0.93747761  0.46674925  0.04793105    -0.05000
N178        N  0.92935881  0.44361451  0.06274916    -0.57800
N179        N  0.91767667  0.48672607  0.04977250    -0.06300
N180        N  0.89611019  0.47711730  0.06600808    -0.60600
N181        N  0.93956594  0.47068794  0.98048308    -0.05300
N182        N  0.93194517  0.45086015  0.96078941    -0.57800
Mn183      Mn  0.91876015  0.52491725  0.01856722     1.20200
Mn184      Mn  0.97525169  0.47058159  0.01695085     1.10100
Cl185      Cl  0.97480010  0.52702052  0.01867201    -0.85800
C186        C  0.90599729  0.45902880  0.94878226     0.96600
C187        C  0.90344398  0.44994957  0.07446070     0.96400
C188        C  0.88541007  0.42907299  0.09490470    -0.02300
C189        C  0.07751737  0.44161093  0.94635467    -0.02300
C190        C  0.06377997  0.61552146  0.93027128    -0.02300
C191        C  0.88777324  0.44108240  0.92375328    -0.02300
C192        C  0.88978889  0.60907769  0.11116074    -0.02300
C193        C  0.69797086  0.51145843  0.75251115     0.02500
C194        C  0.70083816  0.54145921  0.74793036     0.02400
C195        C  0.71919464  0.55716522  0.76587226    -0.18100
C196        C  0.73629227  0.54347943  0.78661819     0.02500
C197        C  0.73741780  0.51334518  0.78793219     0.02400
C198        C  0.71709267  0.49756339  0.77193960    -0.18100
H199        H  0.71642797  0.47454657  0.77432357     0.04500
H200        H  0.72062577  0.58015771  0.76338404     0.04500
C201        C  0.06485067  0.61953859  0.10471233    -0.02300
C202        C  0.05250657  0.44087765  0.11261374    -0.02300
C203        C  0.23658432  0.03908429  0.80200386     0.02500
C204        C  0.24248542  0.01113832  0.79163273     0.02400
C205        C  0.22458202  0.99909255  0.77042671    -0.18100
C206        C  0.20083551  0.01394769  0.75943650     0.02500
C207        C  0.19525137  0.04215293  0.76905469     0.02400
C208        C  0.21297533  0.05420103  0.79057390    -0.18100
H209        H  0.20854199  0.07557972  0.79825406     0.04500
H210        H  0.22923033  0.97792952  0.76226539     0.04500
C211        C  0.46269197  0.78465101  0.31524126     0.02500
C212        C  0.49300397  0.78044631  0.31339377     0.02400
C213        C  0.50856163  0.79988047  0.29579241    -0.18100
C214        C  0.49573302  0.82327989  0.28103451     0.02500
C215        C  0.46509752  0.82680171  0.28281397     0.02400
C216        C  0.44971340  0.80757425  0.30026636    -0.18100
H217        H  0.42739115  0.80863986  0.30077190     0.04500
H218        H  0.53069060  0.79594154  0.29176237     0.04500
C219        C  0.49504720  0.26107095  0.71983397     0.02500
C220        C  0.46518293  0.26492583  0.72257811     0.02400
C221        C  0.44933774  0.24757111  0.74170256    -0.18100
C222        C  0.46273466  0.22783764  0.76061759     0.02500
C223        C  0.49307173  0.22467793  0.75842071     0.02400
C224        C  0.50854310  0.24082206  0.73786785    -0.18100
H225        H  0.53152762  0.23853950  0.73689109     0.04500
H226        H  0.42640301  0.25018486  0.74231121     0.04500
C227        C  0.56188939  0.11633058  0.93292175    -0.02300
N228        N  0.51237902  0.97129242  0.98608580    -0.05900
N229        N  0.51893507  0.95059502  0.96739089    -0.58100
N230        N  0.53351941  0.99194225  0.05526156    -0.05600
N231        N  0.55447149  0.98581221  0.07416225    -0.60200
N232        N  0.51480553  0.97067048  0.05454563    -0.05200
N233        N  0.52372950  0.94979671  0.07249319    -0.58000
N234        N  0.53348690  0.99005928  0.98747227    -0.04900
N235        N  0.55490926  0.98099354  0.97081647    -0.60500
C236        C  0.54592890  0.95613443  0.95781370     0.96200
C237        C  0.54835242  0.95949885  0.08559862     0.96000
N238        N  0.51003549  0.08282508  0.05497026    -0.06100
N239        N  0.51615358  0.10407975  0.07311214    -0.58600
N240        N  0.53071630  0.06318286  0.98552952    -0.04200
N241        N  0.55023746  0.07021120  0.96582931    -0.59900
N242        N  0.51161517  0.08390106  0.98689934    -0.06100
N243        N  0.51915931  0.10505843  0.96887920    -0.58900
N244        N  0.53140646  0.06435926  0.05421487    -0.03900
N245        N  0.55230312  0.07376130  0.07159974    -0.60000
Mn246      Mn  0.53240002  0.02749837  0.02056563     1.18400
C247        C  0.54281427  0.09884099  0.08366682     0.98300
C248        C  0.54372325  0.09673445  0.95537611     0.99000
N249        N  0.44199545  0.97048485  0.05510980    -0.06200
N250        N  0.43552564  0.95017122  0.07437348    -0.62500
N251        N  0.42177405  0.99265267  0.98573832    -0.05000
N252        N  0.40279385  0.98782824  0.96454168    -0.63100
N253        N  0.44085691  0.97182495  0.98651057    -0.05700
N254        N  0.43399797  0.95247173  0.96644640    -0.62700
N255        N  0.42123832  0.98954500  0.05441642    -0.04600
N256        N  0.40085580  0.98143507  0.07281390    -0.63400
Mn257      Mn  0.47737697  0.97092906  0.02067788     1.10700
C258        C  0.40982844  0.95701079  0.08647384     0.99500
C259        C  0.41091201  0.96302027  0.95141762     0.99600
N260        N  0.44110855  0.08238061  0.98636277    -0.05700
N261        N  0.43474266  0.10287621  0.96718628    -0.61100
N262        N  0.42098643  0.06091392  0.05607700    -0.05000
N263        N  0.40120771  0.06604730  0.07597582    -0.57800
N264        N  0.43897827  0.08265582  0.05463130    -0.06300
N265        N  0.43046792  0.10312979  0.07285753    -0.60600
N266        N  0.41990155  0.06386906  0.98824861    -0.05300
N267        N  0.39840584  0.07270682  0.97135554    -0.57800
Mn268      Mn  0.47550136  0.08288386  0.02072194     1.20200
Mn269      Mn  0.42087724  0.02660741  0.02116952     1.10100
Cl270      Cl  0.47662273  0.02688993  0.02086614    -0.85800
C271        C  0.40767595  0.09712666  0.95791309     0.96600
C272        C  0.40726817  0.09234996  0.08722260     0.96400
C273        C  0.56949843  0.94147770  0.10651594    -0.02300
C274        C  0.39078975  0.94553457  0.92972566    -0.02300
C275        C  0.38909610  0.11609377  0.93633411    -0.02300
C276        C  0.56444354  0.93653156  0.93600184    -0.02300
C277        C  0.39223193  0.93625573  0.10867163    -0.02300
C278        C  0.49905982  0.75144939  0.75726424     0.02500
C279        C  0.47004060  0.74524201  0.76329831     0.02400
C280        C  0.45531348  0.76335105  0.78266126    -0.18100
C281        C  0.46905426  0.78713596  0.79586615     0.02500
C282        C  0.49837874  0.79233605  0.79013418     0.02400
C283        C  0.51292148  0.77432080  0.77109501    -0.18100
H284        H  0.53511746  0.77864283  0.76632538     0.04500
H285        H  0.43288526  0.75958002  0.78663840     0.04500
C286        C  0.38649400  0.10903759  0.10871145    -0.02300
C287        C  0.56253899  0.12002365  0.10245763    -0.02300
C288        C  0.98152427  0.74057307  0.26786500     0.02500
C289        C  0.95211633  0.74756806  0.26343520     0.02400
C290        C  0.93971251  0.76963999  0.27967545    -0.18100
C291        C  0.95550620  0.78545482  0.30018048     0.02500
C292        C  0.98499786  0.77856231  0.30489564     0.02400
C293        C  0.99721245  0.75588262  0.28901677    -0.18100
H294        H  0.01947553  0.75066229  0.29253016     0.04500
H295        H  0.91753375  0.77506416  0.27571173     0.04500
C296        C  0.71019070  0.03745240  0.24106731     0.02500
C297        C  0.71626325  0.00755567  0.24066550     0.02400
C298        C  0.73428103  0.99578286  0.26179441    -0.18100
C299        C  0.74661642  0.01284795  0.28323238     0.02500
C300        C  0.74187289  0.04269365  0.28335619     0.02400
C301        C  0.72386283  0.05476303  0.26205977    -0.18100
H302        H  0.72000857  0.07759029  0.26219348     0.04500
H303        H  0.73849831  0.97299567  0.26177335     0.04500
C304        C  0.71131819  0.30037852  0.51840058     0.02500
C305        C  0.71847996  0.30631266  0.54780638     0.02400
C306        C  0.73657144  0.28746800  0.56278035    -0.18100
C307        C  0.74865253  0.26382151  0.54906308     0.02500
C308        C  0.74443042  0.25962654  0.51892344     0.02400
C309        C  0.72489527  0.27749254  0.50408239    -0.18100
H310        H  0.72029128  0.27364088  0.48139693     0.04500
H311        H  0.74226257  0.29178843  0.58514108     0.04500
C312        C  0.23842072  0.75297689  0.51344184     0.02500
C313        C  0.24656591  0.75567517  0.54380042     0.02400
C314        C  0.23464456  0.77903007  0.55886063    -0.18100
C315        C  0.21242980  0.79586676  0.54731683     0.02500
C316        C  0.20306206  0.79139648  0.51847500     0.02400
C317        C  0.21648689  0.77038037  0.50190263    -0.18100
H318        H  0.21061298  0.76838865  0.47923282     0.04500
H319        H  0.24345670  0.78576964  0.57924168     0.04500
C320        C  0.88353046  0.11341295  0.43260698    -0.02300
N321        N  0.94038677  0.06069055  0.57934037    -0.05900
N322        N  0.93365164  0.07885783  0.60051627    -0.58100
N323        N  0.91800290  0.99546555  0.56035660    -0.05600
N324        N  0.89632097  0.97927484  0.56965140    -0.60200
N325        N  0.93874355  0.99497378  0.58001049    -0.05200
N326        N  0.93094745  0.97914573  0.60259675    -0.58000
N327        N  0.92074176  0.06227888  0.55854384    -0.04900
N328        N  0.90129510  0.08193984  0.56558836    -0.60500
C329        C  0.90961885  0.09329173  0.59162266     0.96200
C330        C  0.90441785  0.96896301  0.59637269     0.96000
N331        N  0.93784200  0.99337842  0.46664922    -0.06100
N332        N  0.93046111  0.97448144  0.44637631    -0.58600
N333        N  0.91798121  0.06087317  0.48444788    -0.04200
N334        N  0.89664425  0.07850889  0.47670621    -0.59900
N335        N  0.93816737  0.06162915  0.46448715    -0.06100
N336        N  0.93059296  0.08087216  0.44393345    -0.58900
N337        N  0.91826550  0.99371431  0.48719199    -0.03900
N338        N  0.89766832  0.97493727  0.48082619    -0.60000
Mn339      Mn  0.91888642  0.02808184  0.52248325     1.18400
C340        C  0.90528385  0.96274405  0.45515536     0.98300
C341        C  0.90454259  0.09222602  0.45172560     0.99000
N342        N  0.01165292  0.99026667  0.57752801    -0.06200
N343        N  0.01866950  0.97005765  0.59712091    -0.62500
N344        N  0.03225399  0.05838670  0.56040553    -0.05000
N345        N  0.05260044  0.07654020  0.56943491    -0.63100
N346        N  0.01129039  0.05879541  0.57936010    -0.05700
N347        N  0.01678866  0.07782727  0.60014840    -0.62700
N348        N  0.03129737  0.99053381  0.55696692    -0.04600
N349        N  0.05126035  0.97067408  0.56268271    -0.63400
Mn350      Mn  0.97576695  0.02594477  0.57880222     1.10700
C351        C  0.04354268  0.95738846  0.58789537     0.99500
C352        C  0.04235222  0.09000318  0.59369965     0.99600
N353        N  0.01202219  0.05777252  0.46411652    -0.05700
N354        N  0.02142925  0.07301293  0.44164088    -0.61100
N355        N  0.03195529  0.99364580  0.48331836    -0.05000
N356        N  0.05332696  0.97695189  0.47430140    -0.57800
N357        N  0.00998472  0.99106945  0.46522564    -0.06300
N358        N  0.01592717  0.97092905  0.44549203    -0.60600
N359        N  0.03063958  0.05986925  0.48578490    -0.05300
N360        N  0.05139340  0.07789692  0.47830992    -0.57800
Mn361      Mn  0.97436067  0.02602248  0.46513532     1.20200
Mn362      Mn  0.03152707  0.02588072  0.52180537     1.10100
Cl363      Cl  0.97514004  0.02655292  0.52199160    -0.85800
C364        C  0.04539763  0.08711491  0.45079169     0.96600
C365        C  0.04306820  0.96113876  0.45154007     0.96400
C366        C  0.88674254  0.94084043  0.43683167    -0.02300
C367        C  0.06064024  0.93776720  0.43257891    -0.02300
C368        C  0.06249425  0.93423687  0.60596700    -0.02300
C369        C  0.89066676  0.11478010  0.61087309    -0.02300
C370        C  0.88816672  0.94551653  0.61517493    -0.02300
C371        C  0.72105876  0.75114936  0.51153053     0.02500
C372        C  0.71936215  0.75787125  0.54139116     0.02400
C373        C  0.73830416  0.77787662  0.55350439    -0.18100
C374        C  0.75764258  0.79284221  0.53602264     0.02500
C375        C  0.75676237  0.78844771  0.50556686     0.02400
C376        C  0.73960790  0.76676335  0.49390934    -0.18100
H377        H  0.73967748  0.76295266  0.47076840     0.04500
H378        H  0.73731546  0.78253274  0.57644281     0.04500
C379        C  0.06660902  0.10633611  0.43167897    -0.02300
C380        C  0.05929153  0.11143971  0.61493456    -0.02300
C381        C  0.97970778  0.75564813  0.78829666     0.02500
C382        C  0.94995438  0.74824871  0.78598447     0.02400
C383        C  0.93378057  0.76051866  0.76383280    -0.18100
C384        C  0.94632808  0.77951125  0.74481357     0.02500
C385        C  0.97510383  0.78507475  0.74360149     0.02400
C386        C  0.99197859  0.77389966  0.76672835    -0.18100
H387        H  0.01406056  0.78038645  0.76874611     0.04500
H388        H  0.91103239  0.75663806  0.76218777     0.04500
C389        C  0.72598108  0.01348818  0.81264382     0.02500
C390        C  0.72878091  0.04366738  0.81278958     0.02400
C391        C  0.74568869  0.05753506  0.79182396    -0.18100
C392        C  0.76070510  0.04214963  0.77055718     0.02500
C393        C  0.75533759  0.01190324  0.76928308     0.02400
C394        C  0.73944875  0.99816036  0.79084914    -0.18100
H395        H  0.73701861  0.97511925  0.79023652     0.04500
H396        H  0.74542293  0.08060864  0.79113359     0.04500
C397        C  0.71809260  0.72978886  0.04501422     0.02500
C398        C  0.71196184  0.72462110  0.01519020     0.02400
C399        C  0.69015465  0.74061832  0.00167286    -0.18100
C400        C  0.67655444  0.76348726  0.01570007     0.02500
C401        C  0.68296883  0.76895975  0.04599170     0.02400
C402        C  0.70370723  0.75169196  0.05966927    -0.18100
H403        H  0.71073604  0.75662257  0.08140711     0.04500
H404        H  0.68494111  0.73650051  0.97916627     0.04500
C405        C  0.90970479  0.93303011  0.63875362     0.01500
C406        C  0.90525141  0.93491976  0.66900425     0.04400
C407        C  0.90706896  0.90983640  0.68604220    -0.11700
C408        C  0.92139561  0.88572288  0.67505132     0.23600
C409        C  0.93418316  0.88906594  0.64740108    -0.12300
C410        C  0.93186160  0.91485436  0.63219820     0.05100
C411        C  0.92654426  0.85945204  0.69362528     0.27500
C412        C  0.93200546  0.86129485  0.72926874    -0.13000
C413        C  0.93399263  0.83227354  0.74800073     0.05600
C414        C  0.93074978  0.80166726  0.73197232    -0.08900
C415        C  0.92653609  0.79970065  0.69768054     0.06400
C416        C  0.92410778  0.82807313  0.67867031    -0.13300
Br417      Br  0.95724241  0.86146139  0.62929171    -0.05400
Br418      Br  0.90284918  0.97176898  0.68667120     0.00200
Br419      Br  0.94241820  0.83357646  0.78881448     0.00700
Br420      Br  0.90454531  0.82239665  0.64256089    -0.03700
Br421      Br  0.96758836  0.93379370  0.62776771     0.00800
Br422      Br  0.87934144  0.90466381  0.71580195    -0.03000
Br423      Br  0.93632562  0.89583879  0.75224739    -0.03900
Br424      Br  0.92569119  0.76282182  0.67960556     0.00100
C425        C  0.86097551  0.95307514  0.63456000     0.01500
C426        C  0.84936873  0.98087736  0.63806584     0.04400
C427        C  0.82419702  0.98475561  0.65429723    -0.11700
C428        C  0.81450891  0.96337651  0.67340413     0.23600
C429        C  0.82410028  0.93563293  0.66946875    -0.12300
C430        C  0.84614297  0.92999796  0.64975381     0.05100
C431        C  0.79714868  0.97032339  0.69962532     0.27500
C432        C  0.81055417  0.97252748  0.72729050    -0.13000
C433        C  0.79621486  0.98469723  0.75061636     0.05600
C434        C  0.76793642  0.99321909  0.74707023    -0.08900
C435        C  0.75254925  0.98487378  0.72200031     0.06400
C436        C  0.76734562  0.97409949  0.69787939    -0.13300
Br437      Br  0.80505106  0.90524876  0.69048358    -0.05400
Br438      Br  0.86794999  0.01459918  0.62385638     0.00200
Br439      Br  0.81552807  0.99135518  0.78728967     0.00700
Br440      Br  0.74695150  0.96423182  0.66289150    -0.03700
Br441      Br  0.85580826  0.88966131  0.64689552     0.00800
Br442      Br  0.79985371  0.01670640  0.64569610    -0.03000
Br443      Br  0.84955364  0.96300928  0.73382479    -0.03900
Br444      Br  0.71177355  0.98961710  0.72006859     0.00100
C445        C  0.87565675  0.92369324  0.59228760     0.01500
C446        C  0.84640034  0.92629193  0.58456103     0.04400
C447        C  0.82918621  0.90213804  0.58585651    -0.11700
C448        C  0.84088845  0.87525095  0.57939297     0.23600
C449        C  0.87118076  0.87315753  0.57779904    -0.12300
C450        C  0.88852804  0.89743087  0.58423400     0.05100
C451        C  0.82061766  0.85257026  0.56878630     0.27500
C452        C  0.81902340  0.82473018  0.58086666    -0.13000
C453        C  0.80010271  0.80433766  0.56874385     0.05600
C454        C  0.77819560  0.81340690  0.54962023    -0.08900
C455        C  0.77587718  0.84265881  0.54371531     0.06400
C456        C  0.79930614  0.86056404  0.54839468    -0.13300
Br457      Br  0.88958853  0.83754079  0.56859363    -0.05400
Br458      Br  0.82894139  0.96234875  0.57453579     0.00200
Br459      Br  0.80329988  0.76468530  0.57969261     0.00700
Br460      Br  0.80049839  0.89681826  0.52823351    -0.03700
Br461      Br  0.92706639  0.89776301  0.57018249     0.00800
Br462      Br  0.79039029  0.90603273  0.59955463    -0.03000
Br463      Br  0.83741363  0.81583147  0.61695913    -0.03900
Br464      Br  0.73865514  0.85962083  0.54181312     0.00100
C465        C  0.78045360  0.05759092  0.74922434     0.01500
C466        C  0.78275464  0.04707068  0.72095172     0.04400
C467        C  0.80716012  0.05381241  0.70532686    -0.11700
C468        C  0.81655577  0.08174890  0.70591708     0.23600
C469        C  0.81135141  0.09713567  0.73171082    -0.12300
C470        C  0.79611268  0.08347625  0.75482937     0.05100
C471        C  0.83582829  0.09019893  0.68150429     0.27500
C472        C  0.86574810  0.08803952  0.68460179    -0.13000
C473        C  0.88335747  0.08755187  0.65985380     0.05600
C474        C  0.87216382  0.09474069  0.63168704    -0.08900
C475        C  0.84223203  0.09061926  0.62860582     0.06400
C476        C  0.82434510  0.09055945  0.65308194    -0.13300
Br477      Br  0.82553155  0.13539573  0.73570140    -0.05400
Br478      Br  0.74818497  0.04981153  0.69873266     0.00200
Br479      Br  0.92313537  0.07851585  0.66556353     0.00700
Br480      Br  0.78369682  0.09390617  0.64712542    -0.03700
Br481      Br  0.80000475  0.09911504  0.79316075     0.00800
Br482      Br  0.83898356  0.02840792  0.70681777    -0.03000
Br483      Br  0.88296051  0.08615331  0.72278232    -0.03900
Br484      Br  0.82723903  0.06932785  0.59665427     0.00100
C485        C  0.98501739  0.80604654  0.71972144     0.01500
C486        C  0.01106018  0.79991104  0.70544057     0.04400
C487        C  0.02287158  0.81873564  0.68502376    -0.11700
C488        C  0.00995040  0.84501617  0.67926610     0.23600
C489        C  0.98412264  0.85187112  0.69411250    -0.12300
C490        C  0.96631837  0.82994681  0.70879181     0.05100
C491        C  0.02448027  0.86674761  0.65941596     0.27500
C492        C  0.03548633  0.89203934  0.67135718    -0.13000
C493        C  0.03804394  0.91663697  0.65410852     0.05600
C494        C  0.04103118  0.91426754  0.62340442    -0.08900
C495        C  0.02781452  0.89000997  0.61130161     0.06400
C496        C  0.02281423  0.86528298  0.62861128    -0.13300
Br497      Br  0.98019172  0.89291493  0.70064148    -0.05400
Br498      Br  0.02885894  0.76302504  0.70976178     0.00200
Br499      Br  0.03281419  0.95296683  0.67298937     0.00700
Br500      Br  0.01574782  0.82951319  0.60913927    -0.03700
Br501      Br  0.88784416  0.83160846  0.71904110     0.00800
Br502      Br  0.05959074  0.81040453  0.66820840    -0.03000
Br503      Br  0.04956259  0.89260637  0.71089408    -0.03900
Br504      Br  0.00264889  0.89664306  0.57857568     0.00100
C505        C  0.86405470  0.92510441  0.45703291     0.01500
C506        C  0.87019474  0.90244411  0.47579155     0.04400
C507        C  0.85061062  0.87933323  0.47825582    -0.11700
C508        C  0.82361860  0.88004343  0.46329712     0.23600
C509        C  0.81588039  0.90635533  0.45060535    -0.12300
C510        C  0.83423685  0.92971068  0.45360119     0.05100
C511        C  0.80274166  0.85526222  0.46463472     0.27500
C512        C  0.81312197  0.82691880  0.46234431    -0.13000
C513        C  0.79892502  0.80442362  0.47637680     0.05600
C514        C  0.77091618  0.80860846  0.48553078    -0.08900
C515        C  0.75684946  0.83391971  0.47760299     0.06400
C516        C  0.77298368  0.85839179  0.47101275    -0.13300
Br517      Br  0.78756742  0.90904803  0.42014659    -0.05400
Br518      Br  0.89231204  0.91261423  0.50903765     0.00200
Br519      Br  0.81785382  0.76857504  0.48365474     0.00700
Br520      Br  0.75286778  0.89431648  0.47588361    -0.03700
Br521      Br  0.81776955  0.96531186  0.46489865     0.00800
Br522      Br  0.86095705  0.84848789  0.50363225    -0.03000
Br523      Br  0.84543869  0.81834468  0.43901112    -0.03900
Br524      Br  0.71569033  0.83509366  0.47688269     0.00100
C525        C  0.18097134  0.81039004  0.50468744     0.01500
C526        C  0.15161435  0.80580831  0.50942541     0.04400
C527        C  0.13119588  0.82549213  0.49857002    -0.11700
C528        C  0.14008710  0.85130869  0.48555296     0.23600
C529        C  0.16943450  0.85542938  0.48030614    -0.12300
C530        C  0.18933581  0.83395292  0.48763037     0.05100
C531        C  0.11841581  0.87169278  0.47315880     0.27500
C532        C  0.11019953  0.86944115  0.44431690    -0.13000
C533        C  0.09302557  0.89090854  0.43152130     0.05600
C534        C  0.07883136  0.91295845  0.44873016    -0.08900
C535        C  0.08428198  0.91111563  0.47906290     0.06400
C536        C  0.10664092  0.89371547  0.48952976    -0.13300
Br537      Br  0.18260459  0.89036490  0.46292936    -0.05400
Br538      Br  0.13942251  0.77130740  0.52849332     0.00200
Br539      Br  0.09325133  0.88942970  0.38968295     0.00700
Br540      Br  0.12715081  0.90663742  0.52194327    -0.03700
Br541      Br  0.22703705  0.83518751  0.47122288     0.00800
Br542      Br  0.09111033  0.81610261  0.49898640    -0.03000
Br543      Br  0.12528784  0.83791278  0.42188433    -0.03900
Br544      Br  0.06223725  0.92909582  0.50862710     0.00100
C545        C  0.19990795  0.81927124  0.56508367     0.01500
C546        C  0.18062763  0.81362465  0.58754168     0.04400
C547        C  0.16453297  0.83620568  0.59934124    -0.11700
C548        C  0.16341899  0.86310458  0.58497793     0.23600
C549        C  0.18632555  0.86943014  0.56566575    -0.12300
C550        C  0.20571470  0.84778174  0.55805956     0.05100
C551        C  0.13673371  0.88163901  0.58689305     0.27500
C552        C  0.10943486  0.87017007  0.57998915    -0.13000
C553        C  0.08467456  0.88788249  0.57842365     0.05600
C554        C  0.08564972  0.91776303  0.58583018    -0.08900
C555        C  0.11418961  0.92905603  0.58539710     0.06400
C556        C  0.13823309  0.91138194  0.59117972    -0.13300
Br557      Br  0.19254165  0.90607549  0.54751373    -0.05400
Br558      Br  0.17518037  0.77506457  0.60118564     0.00200
Br559      Br  0.05746461  0.87331859  0.55088736     0.00700
Br560      Br  0.17103665  0.92753123  0.61054070    -0.03700
Br561      Br  0.24141269  0.85684021  0.53978686     0.00800
Br562      Br  0.14382609  0.82976898  0.63460586    -0.03000
Br563      Br  0.10500912  0.82975891  0.57181461    -0.03900
Br564      Br  0.12096001  0.96898691  0.57798593     0.00100
C565        C  0.76265059  0.23853511  0.50286916     0.01500
C566        C  0.75548389  0.20929613  0.50144285     0.04400
C567        C  0.77571722  0.18894983  0.49188560    -0.11700
C568        C  0.80386509  0.19741754  0.48498480     0.23600
C569        C  0.80989397  0.22709496  0.48370103    -0.12300
C570        C  0.78900772  0.24740076  0.49145530     0.05100
C571        C  0.82528490  0.17577015  0.47431935     0.27500
C572        C  0.84905337  0.16606943  0.49103078    -0.13000
C573        C  0.86914808  0.14579436  0.48004086     0.05600
C574        C  0.86773691  0.13859736  0.44999395    -0.08900
C575        C  0.85066951  0.15842021  0.43389096     0.06400
C576        C  0.82518294  0.16870743  0.44505356    -0.13300
Br577      Br  0.84635521  0.24052899  0.47038938    -0.05400
Br578      Br  0.71709856  0.19767373  0.51003088     0.00200
Br579      Br  0.90002024  0.13426780  0.50567957     0.00700
Br580      Br  0.79777157  0.18569989  0.41865310    -0.03700
Br581      Br  0.79535014  0.28747991  0.48393079     0.00800
Br582      Br  0.76426040  0.14977750  0.48632350    -0.03000
Br583      Br  0.85830354  0.18589154  0.52491422    -0.03900
Br584      Br  0.87041602  0.19158138  0.41954020     0.00100
C585        C  0.76928889  0.24620244  0.56560832     0.01500
C586        C  0.79800814  0.25395159  0.56519806     0.04400
C587        C  0.81895581  0.23356096  0.57183506    -0.11700
C588        C  0.81078492  0.20669871  0.58454762     0.23600
C589        C  0.78198139  0.20344718  0.59288880    -0.12300
C590        C  0.76094678  0.22171180  0.58109510     0.05100
C591        C  0.83122575  0.18196192  0.58805927     0.27500
C592        C  0.82544409  0.15421585  0.57648439    -0.13000
C593        C  0.84694152  0.13254732  0.57663511     0.05600
C594        C  0.87364826  0.13745065  0.59058222    -0.08900
C595        C  0.88029067  0.16724081  0.59268703     0.06400
C596        C  0.85893022  0.18717655  0.59797637    -0.13300
Br597      Br  0.77171895  0.17550472  0.62185825    -0.05400
Br598      Br  0.80814965  0.29321106  0.55689595     0.00200
Br599      Br  0.84586091  0.10704872  0.54388527     0.00700
Br600      Br  0.86704768  0.21788984  0.62451642    -0.03700
Br601      Br  0.72109078  0.21356240  0.58654341     0.00800
Br602      Br  0.85727668  0.24470251  0.56103243    -0.03000
Br603      Br  0.78968714  0.14606959  0.55725687    -0.03900
Br604      Br  0.91461270  0.18321850  0.57726817     0.00100
C605        C  0.86653126  0.95338465  0.41213160     0.01500
C606        C  0.85725289  0.98231071  0.41074337     0.04400
C607        C  0.83276092  0.98914476  0.39439334    -0.11700
C608        C  0.82244891  0.97092217  0.37262254     0.23600
C609        C  0.83253361  0.94304178  0.37157461    -0.12300
C610        C  0.85196045  0.93351517  0.39272071     0.05100
C611        C  0.80236337  0.98098998  0.34970299     0.27500
C612        C  0.77257415  0.98149282  0.35423804    -0.13000
C613        C  0.75408168  0.98953905  0.33150637     0.05600
C614        C  0.76535156  0.99918317  0.30510836    -0.08900
C615        C  0.79457336  0.99605469  0.29959200     0.06400
C616        C  0.81292905  0.98600253  0.32150274    -0.13300
Br617      Br  0.81642885  0.91689173  0.34312867    -0.05400
Br618      Br  0.87389297  0.01357839  0.43214598     0.00200
Br619      Br  0.71342308  0.98456218  0.33531578     0.00700
Br620      Br  0.85205681  0.97702920  0.31187980    -0.03700
Br621      Br  0.85331177  0.89223970  0.39622945     0.00800
Br622      Br  0.80850154  0.01782352  0.40946633    -0.03000
Br623      Br  0.75650469  0.96945271  0.39051754    -0.03900
Br624      Br  0.80904136  0.00373365  0.26139079     0.00100
C625        C  0.86025927  0.09269967  0.41889873     0.01500
C626        C  0.83098490  0.09356098  0.42679666     0.04400
C627        C  0.80918429  0.09007028  0.40554100    -0.11700
C628        C  0.81529214  0.07684311  0.37849849     0.23600
C629        C  0.84386371  0.06676352  0.37523079    -0.12300
C630        C  0.86628391  0.07593483  0.39400222     0.05100
C631        C  0.79321018  0.07396467  0.35373553     0.27500
C632        C  0.76449085  0.06412599  0.35808502    -0.13000
C633        C  0.74575083  0.06043954  0.33424324     0.05600
C634        C  0.75611789  0.06069068  0.30597920    -0.08900
C635        C  0.78290567  0.07277140  0.30092534     0.06400
C636        C  0.80073827  0.08082204  0.32440273    -0.13300
Br637      Br  0.85315332  0.04023312  0.34527132    -0.05400
Br638      Br  0.82001142  0.09545491  0.46676528     0.00200
Br639      Br  0.70513091  0.05680200  0.33953047     0.00700
Br640      Br  0.83504630  0.10121500  0.31435437    -0.03700
Br641      Br  0.90517553  0.06722591  0.38336346     0.00800
Br642      Br  0.77533259  0.11274986  0.41102591    -0.03000
Br643      Br  0.74931002  0.05155354  0.39472224    -0.03900
Br644      Br  0.79444680  0.07893559  0.26133441     0.00100
C645        C  0.00289151  0.79530489  0.32635211     0.01500
C646        C  0.02762812  0.81084929  0.31841025     0.04400
C647        C  0.03940231  0.83162901  0.33750620    -0.11700
C648        C  0.02386289  0.84073062  0.36209799     0.23600
C649        C  0.00101237  0.82281959  0.37081403    -0.12300
C650        C  0.99300561  0.79864836  0.35468230     0.05100
C651        C  0.03052835  0.86803321  0.37908071     0.27500
C652        C  0.03156461  0.86715571  0.40967893    -0.13000
C653        C  0.02903940  0.89243444  0.42598779     0.05600
C654        C  0.03797218  0.91914793  0.41411743    -0.08900
C655        C  0.03421460  0.92089214  0.38347148     0.06400
C656        C  0.03175194  0.89575352  0.36606161    -0.13300
Br657      Br  0.97828561  0.83175230  0.40343133    -0.05400
Br658      Br  0.04484051  0.80526159  0.28109197     0.00200
Br659      Br  0.01693297  0.88928701  0.46550826     0.00700
Br660      Br  0.03544660  0.90053126  0.32464820    -0.03700
Br661      Br  0.96882415  0.76968567  0.37145891     0.00800
Br662      Br  0.07813982  0.84393130  0.33167670    -0.03000
Br663      Br  0.04309718  0.83238469  0.42955667    -0.03900
Br664      Br  0.01789959  0.95478466  0.36697080     0.00100
C665        C  0.94124044  0.80994044  0.31573080     0.01500
C666        C  0.95255829  0.83768526  0.31351607     0.04400
C667        C  0.94542528  0.85867924  0.33404527    -0.11700
C668        C  0.92290664  0.85430841  0.35396484     0.23600
C669        C  0.90689373  0.82874603  0.35086455    -0.12300
C670        C  0.91726526  0.80591036  0.33377730     0.05100
C671        C  0.91663777  0.87675831  0.37697684     0.27500
C672        C  0.91691893  0.87055587  0.40727881    -0.13000
C673        C  0.91523912  0.89278005  0.42797230     0.05600
C674        C  0.90854463  0.92108597  0.41956729    -0.08900
C675        C  0.91474465  0.92764162  0.39004007     0.06400
C676        C  0.91399999  0.90589285  0.36894173    -0.13300
Br677      Br  0.86881980  0.82612250  0.36569740    -0.05400
Br678      Br  0.97651688  0.84734903  0.28114100     0.00200
Br679      Br  0.93715537  0.88712803  0.46271949     0.00700
Br680      Br  0.90176259  0.91594347  0.33006071    -0.03700
Br681      Br  0.89897412  0.76902744  0.33635911     0.00800
Br682      Br  0.96782204  0.89286350  0.33484159    -0.03000
Br683      Br  0.91394141  0.83227965  0.42251650    -0.03900
Br684      Br  0.92131359  0.96652336  0.37746265     0.00100
C685        C  0.58330986  0.09828036  0.11703711     0.01500
C686        C  0.57360067  0.08171342  0.14094446     0.04400
C687        C  0.59306250  0.07233946  0.16247450    -0.11700
C688        C  0.62293109  0.07723215  0.15900343     0.23600
C689        C  0.63220929  0.09010663  0.13268610    -0.12300
C690        C  0.61264338  0.09688342  0.11055639     0.05100
C691        C  0.64503270  0.06834344  0.18123786     0.27500
C692        C  0.64400083  0.07616607  0.21096075    -0.13000
C693        C  0.66378402  0.06415721  0.23091514     0.05600
C694        C  0.68863812  0.05050635  0.22075328    -0.08900
C695        C  0.69259642  0.04922299  0.19073308     0.06400
C696        C  0.66937514  0.05321233  0.17188816    -0.13300
Br697      Br  0.66939677  0.10815530  0.13013654    -0.05400
Br698      Br  0.53308597  0.07431725  0.14607846     0.00200
Br699      Br  0.65661648  0.06689578  0.27184952     0.00700
Br700      Br  0.67157042  0.03743552  0.13347342    -0.03700
Br701      Br  0.62675761  0.10167046  0.07173615     0.00800
Br702      Br  0.57644346  0.05822895  0.19801304    -0.03000
Br703      Br  0.61946503  0.10622626  0.22460364    -0.03900
Br704      Br  0.73033055  0.05175008  0.17519250     0.00100
C705        C  0.70698735  0.99790319  0.83359073     0.01500
C706        C  0.68199745  0.98386884  0.82403378     0.04400
C707        C  0.66336492  0.97140176  0.84417524    -0.11700
C708        C  0.66688766  0.97591048  0.87416153     0.23600
C709        C  0.69374700  0.98693315  0.88378577    -0.12300
C710        C  0.71407120  0.99637364  0.86329848     0.05100
C711        C  0.64191976  0.96996217  0.89414542     0.27500
C712        C  0.61536764  0.98429893  0.89036556    -0.13000
C713        C  0.59158427  0.97826120  0.90815813     0.05600
C714        C  0.59224989  0.95462959  0.92725892    -0.08900
C715        C  0.62064072  0.94658421  0.93598697     0.06400
C716        C  0.64408265  0.95077204  0.91748022    -0.13300
Br717      Br  0.70428054  0.98921884  0.92431434    -0.05400
Br718      Br  0.67245238  0.98137239  0.78350064     0.00200
Br719      Br  0.56428782  0.00849489  0.91387362     0.00700
Br720      Br  0.67595710  0.92481654  0.92054698    -0.03700
Br721      Br  0.75288211  0.00371698  0.87522383     0.00800
Br722      Br  0.63418895  0.94609944  0.83060428    -0.03000
Br723      Br  0.61030171  0.01148941  0.85995025    -0.03900
Br724      Br  0.62968759  0.93474908  0.97472462     0.00100
C725        C  0.57709876  0.90638837  0.94751143     0.01500
C726        C  0.59475808  0.88919164  0.92834020     0.04400
C727        C  0.60831669  0.86368907  0.93762008    -0.11700
C728        C  0.60470333  0.85325861  0.96569357     0.23600
C729        C  0.58518515  0.86766371  0.98372765    -0.12300
C730        C  0.57260700  0.89424204  0.97570243     0.05100
C731        C  0.62315892  0.82841586  0.97590490     0.27500
C732        C  0.61217833  0.80033315  0.97895945    -0.13000
C733        C  0.62978161  0.77801174  0.99026793     0.05600
C734        C  0.65882983  0.78326112  0.99675442    -0.08900
C735        C  0.67095608  0.80873449  0.98615233     0.06400
C736        C  0.65317983  0.83197615  0.97851852    -0.13300
Br737      Br  0.57292906  0.85036074  0.01898109    -0.05400
Br738      Br  0.60490861  0.90003433  0.88929999     0.00200
Br739      Br  0.61385921  0.74102905  0.99883726     0.00700
Br740      Br  0.67052412  0.86881658  0.97288177    -0.03700
Br741      Br  0.54989471  0.91191635  0.00545391     0.00800
Br742      Br  0.63290050  0.84220123  0.91170401    -0.03000
Br743      Br  0.57320493  0.79251474  0.96805398    -0.03900
Br744      Br  0.71191241  0.81242039  0.98422017     0.00100
C745        C  0.54455483  0.92617259  0.90916821     0.01500
C746        C  0.52769582  0.90068774  0.91203353     0.04400
C747        C  0.52412578  0.88133777  0.88864319    -0.11700
C748        C  0.53584679  0.88690090  0.86095125     0.23600
C749        C  0.54817492  0.91413612  0.85695361    -0.12300
C750        C  0.54878684  0.93454433  0.87968786     0.05100
C751        C  0.53335932  0.86436623  0.83705671     0.27500
C752        C  0.54316696  0.83620041  0.84309727    -0.13000
C753        C  0.53232237  0.81255114  0.82761254     0.05600
C754        C  0.51408249  0.81686024  0.80370827    -0.08900
C755        C  0.51087073  0.84474678  0.79283626     0.06400
C756        C  0.51864547  0.86860032  0.80994915    -0.13300
Br757      Br  0.56779455  0.92356632  0.82193140    -0.05400
Br758      Br  0.50906091  0.89062970  0.94775363     0.00200
Br759      Br  0.54254854  0.77416590  0.83902990     0.00700
Br760      Br  0.50756594  0.90542740  0.79436515    -0.03700
Br761      Br  0.53275793  0.96989701  0.86650474     0.00800
Br762      Br  0.50254205  0.84685557  0.89503346    -0.03000
Br763      Br  0.57061473  0.82950343  0.87354466    -0.03900
Br764      Br  0.49877664  0.84973322  0.75308736     0.00100
C765        C  0.40363470  0.92232676  0.90745248     0.01500
C766        C  0.38401950  0.90320769  0.89231265     0.04400
C767        C  0.39353041  0.88027864  0.87504391    -0.11700
C768        C  0.42205439  0.87844342  0.86726646     0.23600
C769        C  0.44043212  0.90019492  0.87699955    -0.12300
C770        C  0.43280743  0.91971862  0.89903844     0.05100
C771        C  0.43229642  0.85397636  0.84862055     0.27500
C772        C  0.44107845  0.82795699  0.86164278    -0.13000
C773        C  0.45286563  0.80579682  0.84468375     0.05600
C774        C  0.45260454  0.80779720  0.81418759    -0.08900
C775        C  0.43888735  0.83139733  0.80114176     0.06400
C776        C  0.43063062  0.85510693  0.81799902    -0.13300
Br777      Br  0.47195632  0.90931625  0.85372266    -0.05400
Br778      Br  0.34323515  0.90704172  0.89307245     0.00200
Br779      Br  0.46852638  0.77228935  0.86315270     0.00700
Br780      Br  0.41706171  0.88877855  0.79859455    -0.03700
Br781      Br  0.46358295  0.94339340  0.91345735     0.00800
Br782      Br  0.36713142  0.85198097  0.85986964    -0.03000
Br783      Br  0.43534199  0.82193197  0.90250961    -0.03900
Br784      Br  0.42931370  0.83009859  0.76044548     0.00100
C785        C  0.57864967  0.91409439  0.08874258     0.01500
C786        C  0.56906259  0.88602581  0.09572422     0.04400
C787        C  0.58806500  0.86249058  0.09461584    -0.11700
C788        C  0.61549282  0.86595003  0.08248484     0.23600
C789        C  0.62021444  0.89190805  0.06682462    -0.12300
C790        C  0.60077559  0.91490596  0.06858217     0.05100
C791        C  0.63551172  0.84081147  0.07925684     0.27500
C792        C  0.64812431  0.82286837  0.10147121    -0.13000
C793        C  0.66334391  0.79717553  0.09262511     0.05600
C794        C  0.67059534  0.79419366  0.06233877    -0.08900
C795        C  0.66456341  0.81843976  0.04649334     0.06400
C796        C  0.63738333  0.82918694  0.05194354    -0.13300
Br797      Br  0.65299418  0.89778327  0.04313640    -0.05400
Br798      Br  0.52940807  0.87921901  0.10322801     0.00200
Br799      Br  0.66970249  0.76719485  0.12048029     0.00700
Br800      Br  0.60753973  0.80037510  0.04910261    -0.03700
Br801      Br  0.60158684  0.94555535  0.04079392     0.00800
Br802      Br  0.57594212  0.82612353  0.10980812    -0.03000
Br803      Br  0.64496409  0.83225458  0.14167102    -0.03900
Br804      Br  0.69702884  0.84369180  0.04759977     0.00100
C805        C  0.59602996  0.96143040  0.11539548     0.01500
C806        C  0.59508907  0.97892162  0.14033938     0.04400
C807        C  0.61965825  0.98157540  0.15845531    -0.11700
C808        C  0.64538187  0.96673729  0.15185461     0.23600
C809        C  0.64676321  0.95429161  0.12402000    -0.12300
C810        C  0.62408579  0.95877938  0.10436844     0.05100
C811        C  0.66945827  0.96536054  0.17406572     0.27500
C812        C  0.69775926  0.97526567  0.16859448    -0.13000
C813        C  0.71523813  0.98362499  0.19211001     0.05600
C814        C  0.70295209  0.98782427  0.21930265    -0.08900
C815        C  0.67803221  0.97269165  0.22584824     0.06400
C816        C  0.66278081  0.95907398  0.20338909    -0.13300
Br817      Br  0.67494311  0.92643662  0.11326738    -0.05400
Br818      Br  0.56130544  0.00020909  0.14872074     0.00200
Br819      Br  0.75612599  0.98675538  0.18831003     0.00700
Br820      Br  0.63082457  0.93515690  0.21304114    -0.03700
Br821      Br  0.63491159  0.99104271  0.08088189     0.00800
Br822      Br  0.61702312  0.00357042  0.19324515    -0.03000
Br823      Br  0.71359933  0.98046132  0.13054622    -0.03900
Br824      Br  0.66475691  0.97114103  0.26519790     0.00100
C825        C  0.70899458  0.06072575  0.83056657     0.01500
C826        C  0.68076760  0.06308771  0.82089712     0.04400
C827        C  0.65946133  0.07136752  0.84009094    -0.11700
C828        C  0.66623735  0.07912212  0.86896571     0.23600
C829        C  0.69537316  0.08060724  0.87726545    -0.12300
C830        C  0.71676716  0.07160226  0.85791436     0.05100
C831        C  0.64309875  0.08912114  0.88889506     0.27500
C832        C  0.63215049  0.11648870  0.88557025    -0.13000
C833        C  0.60773017  0.12499713  0.90094986     0.05600
C834        C  0.59328178  0.10631746  0.92163558    -0.08900
C835        C  0.60930082  0.08067429  0.92887863     0.06400
C836        C  0.63279943  0.07210561  0.91156955    -0.13300
Br837      Br  0.70598945  0.09570984  0.91460384    -0.05400
Br838      Br  0.67184423  0.05646946  0.78043256     0.00200
Br839      Br  0.59418769  0.16239057  0.88954146     0.00700
Br840      Br  0.65331923  0.03778092  0.92040064    -0.03700
Br841      Br  0.75653981  0.07668185  0.86739295     0.00800
Br842      Br  0.62141147  0.07170427  0.82544335    -0.03000
Br843      Br  0.65163256  0.14241292  0.85932954    -0.03900
Br844      Br  0.60725593  0.05899649  0.96466996     0.00100
C845        C  0.44530218  0.21106495  0.78278572     0.01500
C846        C  0.44864904  0.18128184  0.78508954     0.04400
C847        C  0.44161053  0.16687665  0.81083937    -0.11700
C848        C  0.42235346  0.17925525  0.83070620     0.23600
C849        C  0.41166939  0.20672813  0.82351406    -0.12300
C850        C  0.42545744  0.22370289  0.80211219     0.05100
C851        C  0.41421328  0.16352030  0.85841923     0.27500
C852        C  0.40585846  0.13452844  0.85748266    -0.13000
C853        C  0.40796579  0.11701751  0.88229484     0.05600
C854        C  0.40820403  0.12893943  0.91056470    -0.08900
C855        C  0.41818887  0.15793782  0.91154052     0.06400
C856        C  0.41947598  0.17535707  0.88624709    -0.13300
Br857      Br  0.37645272  0.21978925  0.84030961    -0.05400
Br858      Br  0.45400822  0.15914027  0.75068401     0.00200
Br859      Br  0.43396560  0.08635214  0.87494298     0.00700
Br860      Br  0.42723958  0.21586204  0.89107594    -0.03700
Br861      Br  0.41702870  0.26386740  0.80087007     0.00800
Br862      Br  0.46086268  0.13136702  0.81867614    -0.03000
Br863      Br  0.39194945  0.11731687  0.82218604    -0.03900
Br864      Br  0.43384834  0.17373757  0.94664843     0.00100
C865        C  0.50947057  0.20670889  0.77941530     0.01500
C866        C  0.51792961  0.17875247  0.77247896     0.04400
C867        C  0.52420000  0.15911366  0.79500978    -0.11700
C868        C  0.52903196  0.16940471  0.82375533     0.23600
C869        C  0.52990017  0.19938898  0.82728096    -0.12300
C870        C  0.51684363  0.21747903  0.80675117     0.05100
C871        C  0.53224475  0.15003026  0.85015063     0.27500
C872        C  0.51504194  0.15348949  0.87493903    -0.13000
C873        C  0.51892600  0.13630904  0.90003021     0.05600
C874        C  0.54348471  0.11926550  0.90317463    -0.08900
C875        C  0.55367850  0.10958584  0.87585146     0.06400
C876        C  0.55152632  0.12718778  0.85082949    -0.13300
Br877      Br  0.55208157  0.21601349  0.85775379    -0.05400
Br878      Br  0.52252857  0.16821716  0.73239833     0.00200
Br879      Br  0.48460229  0.12214395  0.91703308     0.00700
Br880      Br  0.58171459  0.12729762  0.82306822    -0.03700
Br881      Br  0.50980468  0.25699565  0.81584413     0.00800
Br882      Br  0.52349276  0.11895242  0.78521841    -0.03000
Br883      Br  0.48653310  0.18213369  0.87566301    -0.03900
Br884      Br  0.56424559  0.07062028  0.87120494     0.00100
C885        C  0.44879576  0.84669477  0.26243165     0.01500
C886        C  0.46138738  0.85155045  0.23614255     0.04400
C887        C  0.45713180  0.87917026  0.22551038    -0.11700
C888        C  0.42930704  0.88342442  0.21687196     0.23600
C889        C  0.40914886  0.87391895  0.23848873    -0.12300
C890        C  0.41994222  0.85787668  0.26349104     0.05100
C891        C  0.42463877  0.90087474  0.18939695     0.27500
C892        C  0.41304331  0.92874067  0.19002628    -0.13000
C893        C  0.40806444  0.94390013  0.16365720     0.05600
C894        C  0.41237968  0.93062756  0.13613172    -0.08900
C895        C  0.43283039  0.90857118  0.13690767     0.06400
C896        C  0.43772792  0.89289413  0.16275642    -0.13300
Br897      Br  0.36909056  0.88145663  0.23520234    -0.05400
Br898      Br  0.45509580  0.81822979  0.21238899     0.00200
Br899      Br  0.40095673  0.98389189  0.16628745     0.00700
Br900      Br  0.46426952  0.86193848  0.16003081    -0.03700
Br901      Br  0.39687775  0.85576512  0.29767010     0.00800
Br902      Br  0.46607097  0.90919228  0.25337826    -0.03000
Br903      Br  0.40452690  0.94670061  0.22651543    -0.03900
Br904      Br  0.45859195  0.90301382  0.10497810     0.00100
C905        C  0.51435030  0.84134519  0.26082395     0.01500
C906        C  0.52119666  0.87025388  0.26671905     0.04400
C907        C  0.53036338  0.88908628  0.24411334    -0.11700
C908        C  0.53051218  0.87996415  0.21484933     0.23600
C909        C  0.52762849  0.85003901  0.21010815    -0.12300
C910        C  0.52158074  0.83086601  0.23320005     0.05100
C911        C  0.54019392  0.89960075  0.19010692     0.27500
C912        C  0.52288637  0.92060129  0.17603710    -0.13000
C913        C  0.53108261  0.93431333  0.14963620     0.05600
C914        C  0.55849012  0.92914188  0.13728483    -0.08900
C915        C  0.57707567  0.91083211  0.15472085     0.06400
C916        C  0.56787083  0.89629184  0.17990250    -0.13300
Br917      Br  0.53268781  0.83456472  0.17195841    -0.05400
Br918      Br  0.51807494  0.88381246  0.30584684     0.00200
Br919      Br  0.50349035  0.96046379  0.13254316     0.00700
Br920      Br  0.59359447  0.87111183  0.20163167    -0.03700
Br921      Br  0.52230292  0.79011624  0.22674265     0.00800
Br922      Br  0.54306786  0.92721165  0.25321769    -0.03000
Br923      Br  0.48929976  0.93433175  0.19401977    -0.03900
Br924      Br  0.61549306  0.90154299  0.14493421     0.00100
C925        C  0.18229145  0.99959152  0.73751382     0.01500
C926        C  0.15953246  0.98201208  0.74645878     0.04400
C927        C  0.13981241  0.97143399  0.72597257    -0.11700
C928        C  0.14460251  0.97546661  0.69614609     0.23600
C929        C  0.16892348  0.99075426  0.68709094    -0.12300
C930        C  0.18740206  0.00325151  0.70770729     0.05100
C931        C  0.12345711  0.96482072  0.67427169     0.27500
C932        C  0.12162029  0.93604181  0.66756462    -0.13000
C933        C  0.10046393  0.92649779  0.64798616     0.05600
C934        C  0.08294521  0.94645547  0.63095575    -0.08900
C935        C  0.08641725  0.97595899  0.63786941     0.06400
C936        C  0.10452348  0.98374043  0.66090080    -0.13300
Br937      Br  0.17687572  0.99448233  0.64638853    -0.05400
Br938      Br  0.15653029  0.97050410  0.78642494     0.00200
Br939      Br  0.09722738  0.88530869  0.64645133     0.00700
Br940      Br  0.10027164  0.01936605  0.67805916    -0.03700
Br941      Br  0.22049513  0.02421866  0.69519587     0.00800
Br942      Br  0.10550899  0.95265262  0.73880787    -0.03000
Br943      Br  0.14826441  0.90982816  0.68605500    -0.03900
Br944      Br  0.06864449  0.00771952  0.61772827     0.00100
C945        C  0.17179979  0.05938979  0.75546649     0.01500
C946        C  0.17762066  0.08104684  0.73529166     0.04400
C947        C  0.15525854  0.09270462  0.71847658    -0.11700
C948        C  0.12841887  0.07882986  0.71664087     0.23600
C949        C  0.12198688  0.05927460  0.73973065    -0.12300
C950        C  0.14320176  0.05250559  0.76058462     0.05100
C951        C  0.10968468  0.08318323  0.68964610     0.27500
C952        C  0.07990584  0.08793841  0.69129491    -0.13000
C953        C  0.06245927  0.08610894  0.66633109     0.05600
C954        C  0.07413606  0.09100609  0.63864405    -0.08900
C955        C  0.10310192  0.08195100  0.63606849     0.06400
C956        C  0.12093202  0.07906160  0.66116292    -0.13300
Br957      Br  0.08636157  0.03899352  0.74420270    -0.05400
Br958      Br  0.21599669  0.09456477  0.72991586     0.00200
Br959      Br  0.03601590  0.05483066  0.66901373     0.00700
Br960      Br  0.16013119  0.06777939  0.65569989    -0.03700
Br961      Br  0.13305473  0.03770314  0.79804294     0.00800
Br962      Br  0.16133508  0.12871782  0.70008645    -0.03000
Br963      Br  0.06192580  0.10063500  0.72602754    -0.03900
Br964      Br  0.11837582  0.07313181  0.59835355     0.00100
C965        C  0.36414257  0.09580258  0.92513279     0.01500
C966        C  0.36833251  0.07310550  0.90562863     0.04400
C967        C  0.34652558  0.06638102  0.88551065    -0.11700
C968        C  0.31912704  0.07876764  0.88739801     0.23600
C969        C  0.31342500  0.09579756  0.91144622    -0.12300
C970        C  0.33499452  0.10051713  0.93214726     0.05100
C971        C  0.29566854  0.07116528  0.86651088     0.27500
C972        C  0.29456845  0.08370765  0.83874498    -0.13000
C973        C  0.27411990  0.07470450  0.81815956     0.05600
C974        C  0.25490112  0.05248830  0.82496554    -0.08900
C975        C  0.25346521  0.04278240  0.85387667     0.06400
C976        C  0.27345984  0.05242846  0.87472418    -0.13300
Br977      Br  0.27738806  0.11521874  0.91448456    -0.05400
Br978      Br  0.39749366  0.04466408  0.91305143     0.00200
Br979      Br  0.27196504  0.09394145  0.78126057     0.00700
Br980      Br  0.26870748  0.04208833  0.91493256    -0.03700
Br981      Br  0.32364648  0.10438558  0.97156107     0.00800
Br982      Br  0.35498315  0.04074265  0.85542288    -0.03000
Br983      Br  0.31932844  0.11509677  0.82973116    -0.03900
Br984      Br  0.22263123  0.01805262  0.86527546     0.00100
C985        C  0.37437671  0.96727883  0.90804798     0.01500
C986        C  0.38418740  0.97007981  0.87899700     0.04400
C987        C  0.36550639  0.96616614  0.85523507    -0.11700
C988        C  0.33589048  0.96947816  0.85841222     0.23600
C989        C  0.32613173  0.97395657  0.88719612    -0.12300
C990        C  0.34547007  0.97560110  0.91097736     0.05100
C991        C  0.31571700  0.97224446  0.83237312     0.27500
C992        C  0.31951771  0.99306798  0.80992457    -0.13000
C993        C  0.29548741  0.00385057  0.79477852     0.05600
C994        C  0.26793940  0.99471300  0.80207968    -0.08900
C995        C  0.26518953  0.96939720  0.81841106     0.06400
C996        C  0.28944132  0.95734084  0.83202916    -0.13300
Br997      Br  0.28629557  0.97581096  0.89640590    -0.05400
Br998      Br  0.42215430  0.98262059  0.87069296     0.00200
Br999      Br  0.30003523  0.02883654  0.76177765     0.00700
Br1000     Br  0.28704399  0.91950880  0.84808904    -0.03700
Br1001     Br  0.33839377  0.00883593  0.93403822     0.00800
Br1002     Br  0.38027011  0.94646507  0.82234784    -0.03000
Br1003     Br  0.35631312  0.00525759  0.79582727    -0.03900
Br1004     Br  0.22851652  0.95125203  0.82260910     0.00100
C1005       C  0.99655517  0.71967183  0.24817694     0.01500
C1006       C  0.99516406  0.72424041  0.21822443     0.04400
C1007       C  0.00099409  0.70197201  0.19913807    -0.11700
C1008       C  0.01922759  0.67918041  0.20775479     0.23600
C1009       C  0.02653224  0.67760779  0.23773536    -0.12300
C1010       C  0.01247614  0.69565812  0.25804739     0.05100
C1011       C  0.03228287  0.66089076  0.18399268     0.27500
C1012       C  0.03009451  0.63048395  0.18192996    -0.13000
C1013       C  0.03685877  0.61613304  0.15538660     0.05600
C1014       C  0.04534765  0.63176460  0.13027849    -0.08900
C1015       C  0.03995889  0.66170231  0.13218668     0.06400
C1016       C  0.04106583  0.67540998  0.15896036    -0.13300
Br1017     Br  0.05839285  0.65493441  0.25091093    -0.05400
Br1018     Br  0.99461015  0.76260295  0.20320427     0.00200
Br1019     Br  0.02571757  0.57685946  0.15155713     0.00700
Br1020     Br  0.05536756  0.71434643  0.16063220    -0.03700
Br1021     Br  0.01568514  0.68765434  0.29886951     0.00800
Br1022     Br  0.98400959  0.70413451  0.16097791    -0.03000
Br1023     Br  0.01887815  0.60759087  0.21477168    -0.03900
Br1024     Br  0.02677527  0.68460535  0.10003929     0.00100
C1025       C  0.74174614  0.71475825  0.06077333     0.01500
C1026       C  0.73626365  0.69088252  0.07863600     0.04400
C1027       C  0.75905629  0.67322633  0.08790198    -0.11700
C1028       C  0.78760802  0.68239465  0.08427179     0.23600
C1029       C  0.79232465  0.71010389  0.07278961    -0.12300
C1030       C  0.76993165  0.72482911  0.05864471     0.05100
C1031       C  0.81234920  0.66269658  0.09114226     0.27500
C1032       C  0.81964498  0.65591627  0.11959431    -0.13000
C1033       C  0.84406865  0.63905749  0.12557913     0.05600
C1034       C  0.86090128  0.62579319  0.10275922    -0.08900
C1035       C  0.85196602  0.63215539  0.07398812     0.06400
C1036       C  0.82964741  0.65197297  0.06904622    -0.13300
Br1037     Br  0.82918367  0.72810596  0.07649704    -0.05400
Br1038     Br  0.69794437  0.68327918  0.09159174     0.00200
Br1039     Br  0.85517562  0.63901467  0.16591817     0.00700
Br1040     Br  0.82737678  0.67025274  0.03300886    -0.03700
Br1041     Br  0.77779681  0.75876092  0.03629280     0.00800
Br1042     Br  0.75082040  0.63616732  0.10425636    -0.03000
Br1043     Br  0.79824002  0.67380829  0.15042821    -0.03900
Br1044     Br  0.87204841  0.61899867  0.04032572     0.00100
C1045       C  0.93427340  0.73227601  0.24123439     0.01500
C1046       C  0.92553790  0.70391403  0.24573316     0.04400
C1047       C  0.91415517  0.68794477  0.22247341    -0.11700
C1048       C  0.91698330  0.69791543  0.19355865     0.23600
C1049       C  0.92272339  0.72778781  0.18983605    -0.12300
C1050       C  0.92798522  0.74512177  0.21431518     0.05100
C1051       C  0.91570438  0.67688186  0.16841244     0.27500
C1052       C  0.93203674  0.65106163  0.16851551    -0.13000
C1053       C  0.92990695  0.63121134  0.14536332     0.05600
C1054       C  0.90903672  0.63475074  0.12375064    -0.08900
C1055       C  0.90175515  0.66411804  0.11913218     0.06400
C1056       C  0.90032035  0.68302538  0.14271003    -0.13300
Br1057     Br  0.92763392  0.74609348  0.15245683    -0.05400
Br1058     Br  0.92853978  0.68736104  0.28390209     0.00200
Br1059     Br  0.96445987  0.61350061  0.13298820     0.00700
Br1060     Br  0.86974242  0.71068835  0.14207283    -0.03700
Br1061     Br  0.92686120  0.78631695  0.21095750     0.00800
Br1062     Br  0.89325644  0.65356619  0.23081971    -0.03000
Br1063     Br  0.95755304  0.64171374  0.19968785    -0.03900
Br1064     Br  0.89844620  0.68013105  0.08089475     0.00100
C1065       C  0.88027743  0.45766822  0.89408327     0.01500
C1066       C  0.87001502  0.44229280  0.86944567     0.04400
C1067       C  0.84339882  0.44957754  0.85779994    -0.11700
C1068       C  0.83637602  0.47856061  0.85692480     0.23600
C1069       C  0.85625066  0.49784232  0.87001697    -0.12300
C1070       C  0.87741382  0.48748605  0.89024004     0.05100
C1071       C  0.81085679  0.48742277  0.83889585     0.27500
C1072       C  0.81355920  0.49375231  0.80902234    -0.13000
C1073       C  0.78898746  0.49869945  0.79166279     0.05600
C1074       C  0.76161095  0.49920580  0.80412025    -0.08900
C1075       C  0.75862996  0.48963976  0.83287233     0.06400
C1076       C  0.78304511  0.48278773  0.84978320    -0.13300
Br1077     Br  0.85946487  0.53530294  0.85448166    -0.05400
Br1078     Br  0.89463958  0.43954269  0.83643047     0.00200
Br1079     Br  0.79216420  0.50165277  0.75013696     0.00700
Br1080     Br  0.77833532  0.46437709  0.88692368    -0.03700
Br1081     Br  0.90873325  0.51154864  0.90192251     0.00800
Br1082     Br  0.82428764  0.42315449  0.83187623    -0.03000
Br1083     Br  0.85052082  0.49282209  0.79103432    -0.03900
Br1084     Br  0.72107930  0.48398899  0.84833575     0.00100
C1085       C  0.99721740  0.74456053  0.81342471     0.01500
C1086       C  0.02209939  0.72802139  0.80963200     0.04400
C1087       C  0.03330058  0.71186894  0.83297381    -0.11700
C1088       C  0.01662829  0.70683130  0.85796471     0.23600
C1089       C  0.99318578  0.72530543  0.86220011    -0.12300
C1090       C  0.98629497  0.74649270  0.84162047     0.05100
C1091       C  0.02260507  0.68226117  0.87876551     0.27500
C1092       C  0.02314716  0.65348331  0.86896666    -0.13000
C1093       C  0.02781254  0.63093696  0.88891313     0.05600
C1094       C  0.04107721  0.63659241  0.91583384    -0.08900
C1095       C  0.03424657  0.66378688  0.92761881     0.06400
C1096       C  0.02605624  0.68685181  0.90909119    -0.13300
Br1097     Br  0.96797916  0.72016618  0.89391039    -0.05400
Br1098     Br  0.03992783  0.72450085  0.77250634     0.00200
Br1099     Br  0.01314863  0.59327017  0.88066170     0.00700
Br1100     Br  0.03046119  0.72548238  0.92397832    -0.03700
Br1101     Br  0.96205712  0.77803975  0.85193917     0.00800
Br1102     Br  0.07224411  0.69971556  0.83076311    -0.03000
Br1103     Br  0.02365674  0.64379338  0.82815228    -0.03900
Br1104     Br  0.03880988  0.67110081  0.96813738     0.00100
C1105       C  0.85887360  0.62963186  0.96433486     0.01500
C1106       C  0.83343676  0.61522410  0.97259075     0.04400
C1107       C  0.80700527  0.62845913  0.96840925    -0.11700
C1108       C  0.80493154  0.65830828  0.96912169     0.23600
C1109       C  0.83104954  0.67418354  0.96911812    -0.12300
C1110       C  0.85785755  0.65964669  0.96840246     0.05100
C1111       C  0.77659821  0.67190168  0.97646043     0.27500
C1112       C  0.76644210  0.69583169  0.96074869    -0.13000
C1113       C  0.74534631  0.71367310  0.97275537     0.05600
C1114       C  0.73007990  0.70461594  0.99754292    -0.08900
C1115       C  0.73422976  0.67636410  0.00687415     0.06400
C1116       C  0.75929510  0.66168076  0.99966783    -0.13300
Br1117     Br  0.83127416  0.71532548  0.97387188    -0.05400
Br1118     Br  0.83332177  0.57852936  0.99130503     0.00200
Br1119     Br  0.73877370  0.75022189  0.95483945     0.00700
Br1120     Br  0.76895537  0.62940573  0.02431288    -0.03700
Br1121     Br  0.88923730  0.67760968  0.98833252     0.00800
Br1122     Br  0.77461063  0.60511985  0.95832277    -0.03000
Br1123     Br  0.77987950  0.70323507  0.92209429    -0.03900
Br1124     Br  0.70319193  0.65598953  0.02438804     0.00100
C1125       C  0.89818751  0.63209103  0.92056917     0.01500
C1126       C  0.90151505  0.62312107  0.89157346     0.04400
C1127       C  0.90007570  0.64318902  0.86897254    -0.11700
C1128       C  0.90420111  0.67245549  0.87479161     0.23600
C1129       C  0.90681079  0.68077382  0.90423753    -0.12300
C1130       C  0.90812144  0.65992736  0.92625575     0.05100
C1131       C  0.91330572  0.69166625  0.85040347     0.27500
C1132       C  0.93709024  0.68359477  0.83364267    -0.13000
C1133       C  0.94593979  0.70030735  0.81011589     0.05600
C1134       C  0.93514746  0.72807012  0.80639793    -0.08900
C1135       C  0.91038359  0.73594027  0.82217630     0.06400
C1136       C  0.89845043  0.71676152  0.84252981    -0.13300
Br1137     Br  0.90286910  0.71964042  0.91698949    -0.05400
Br1138     Br  0.90842146  0.58380005  0.88306058     0.00200
Br1139     Br  0.97084112  0.68416348  0.78145192     0.00700
Br1140     Br  0.86054419  0.72345692  0.85685349    -0.03700
Br1141     Br  0.94370075  0.66236972  0.94731623     0.00800
Br1142     Br  0.89152362  0.63079809  0.83009820    -0.03000
Br1143     Br  0.95812835  0.64959071  0.84298286    -0.03900
Br1144     Br  0.89288512  0.77306979  0.81748492     0.00100
C1145       C  0.85319396  0.60298186  0.91854847     0.01500
C1146       C  0.84164371  0.57458776  0.91608052     0.04400
C1147       C  0.81796238  0.56863520  0.89756915    -0.11700
C1148       C  0.80854610  0.58847732  0.87677507     0.23600
C1149       C  0.81807498  0.61644399  0.87897031    -0.12300
C1150       C  0.83807812  0.62408906  0.90065127     0.05100
C1151       C  0.78858214  0.58018868  0.85262518     0.27500
C1152       C  0.79827339  0.57909988  0.82361232    -0.13000
C1153       C  0.77982401  0.57057045  0.80118146     0.05600
C1154       C  0.75250593  0.56068727  0.80779579    -0.08900
C1155       C  0.74152389  0.56485036  0.83565479     0.06400
C1156       C  0.75929937  0.57537858  0.85785782    -0.13300
Br1157     Br  0.80117583  0.64482522  0.85301257    -0.05400
Br1158     Br  0.85561397  0.54168642  0.93578905     0.00200
Br1159     Br  0.79100975  0.57423209  0.76121612     0.00700
Br1160     Br  0.74286539  0.58455835  0.89458641    -0.03700
Br1161     Br  0.84188394  0.66479320  0.90386050     0.00800
Br1162     Br  0.79740429  0.53314934  0.90109974    -0.03000
Br1163     Br  0.83627505  0.58973240  0.81334193    -0.03900
Br1164     Br  0.70165373  0.55754912  0.84266929     0.00100
C1165       C  0.18517714  0.53894365  0.81079532     0.01500
C1166       C  0.15840163  0.52541276  0.80666083     0.04400
C1167       C  0.13376155  0.53520677  0.82130359    -0.11700
C1168       C  0.13599255  0.55772037  0.84150313     0.23600
C1169       C  0.16183840  0.57348464  0.84256127    -0.12300
C1170       C  0.18597741  0.56459293  0.82679116     0.05100
C1171       C  0.11246250  0.56455026  0.86272029     0.27500
C1172       C  0.08937502  0.58161137  0.85466742    -0.13000
C1173       C  0.07892221  0.60089311  0.87531077     0.05600
C1174       C  0.07937662  0.59534519  0.90626304    -0.08900
C1175       C  0.09995270  0.57370765  0.91397800     0.06400
C1176       C  0.11686418  0.56005454  0.89255632    -0.13300
Br1177     Br  0.16423300  0.60769148  0.86558661    -0.05400
Br1178     Br  0.15515068  0.49454513  0.77937712     0.00200
Br1179     Br  0.08924521  0.63677522  0.85964019     0.00700
Br1180     Br  0.14838583  0.53681732  0.90375998    -0.03700
Br1181     Br  0.21979106  0.58819914  0.82664368     0.00800
Br1182     Br  0.09684561  0.51888254  0.81230486    -0.03000
Br1183     Br  0.07988015  0.58740269  0.81395696    -0.03900
Br1184     Br  0.11114835  0.56499605  0.95304061     0.00100
C1185       C  0.21374968  0.48705760  0.83662157     0.01500
C1186       C  0.20156430  0.45950488  0.83689119     0.04400
C1187       C  0.18832923  0.44911360  0.86223219    -0.11700
C1188       C  0.18396786  0.46729150  0.88630050     0.23600
C1189       C  0.20221354  0.49157452  0.88815723    -0.12300
C1190       C  0.21723860  0.50102348  0.86341832     0.05100
C1191       C  0.15655858  0.46505275  0.90398543     0.27500
C1192       C  0.12970565  0.46965702  0.89017965    -0.13000
C1193       C  0.10409414  0.47139931  0.90623848     0.05600
C1194       C  0.10315247  0.46222261  0.93557304    -0.08900
C1195       C  0.13010684  0.46474265  0.94987100     0.06400
C1196       C  0.15602856  0.46178594  0.93447641    -0.13300
Br1197     Br  0.20990456  0.51074015  0.92436864    -0.05400
Br1198     Br  0.20212467  0.43596606  0.80268529     0.00200
Br1199     Br  0.07107125  0.48848352  0.88834266     0.00700
Br1200     Br  0.18959602  0.45177382  0.95642587    -0.03700
Br1201     Br  0.24515917  0.53107846  0.86676084     0.00800
Br1202     Br  0.17778043  0.40959237  0.86404939    -0.03000
Br1203     Br  0.12610198  0.46676252  0.84903566    -0.03900
Br1204     Br  0.13331371  0.49636062  0.97604581     0.00100
C1205       C  0.78974837  0.54016634  0.25255132     0.01500
C1206       C  0.78505804  0.56773016  0.24017989     0.04400
C1207       C  0.80543836  0.58024903  0.22149186    -0.11700
C1208       C  0.82849396  0.56395382  0.21097552     0.23600
C1209       C  0.83415592  0.53757475  0.22489482    -0.12300
C1210       C  0.81657581  0.52740249  0.24743579     0.05100
C1211       C  0.84581528  0.57304886  0.18481529     0.27500
C1212       C  0.83320576  0.57361415  0.15679514    -0.13000
C1213       C  0.85047466  0.57529236  0.13191293     0.05600
C1214       C  0.87909099  0.58566490  0.13402725    -0.08900
C1215       C  0.89239271  0.58053202  0.16125436     0.06400
C1216       C  0.87590722  0.57643438  0.18657483    -0.13300
Br1217     Br  0.86481591  0.51403614  0.21180639    -0.05400
Br1218     Br  0.75001991  0.58826735  0.24576415     0.00200
Br1219     Br  0.83391128  0.56516758  0.09486008     0.00700
Br1220     Br  0.89501120  0.57822626  0.22371988    -0.03700
Br1221     Br  0.83023558  0.49713212  0.27233178     0.00800
Br1222     Br  0.80215029  0.62018822  0.21192367    -0.03000
Br1223     Br  0.79258093  0.57933804  0.15143591    -0.03900
Br1224     Br  0.92851329  0.56141732  0.16153196     0.00100
C1225       C  0.77188843  0.48042434  0.23407828     0.01500
C1226       C  0.77317100  0.49434091  0.20700952     0.04400
C1227       C  0.79331202  0.48583841  0.18630420    -0.11700
C1228       C  0.80864103  0.45989988  0.18929276     0.23600
C1229       C  0.80257862  0.44261528  0.21371912    -0.12300
C1230       C  0.78586692  0.45353144  0.23678300     0.05100
C1231       C  0.82971365  0.45158666  0.16590225     0.27500
C1232       C  0.82064854  0.45231964  0.13668849    -0.13000
C1233       C  0.84056535  0.45576493  0.11421719     0.05600
C1234       C  0.86984071  0.44832244  0.11875310    -0.08900
C1235       C  0.87922456  0.45085655  0.14799934     0.06400
C1236       C  0.85956299  0.44999376  0.17124196    -0.13300
Br1237     Br  0.81493285  0.40336483  0.21475856    -0.05400
Br1238     Br  0.74610540  0.52404983  0.19741312     0.00200
Br1239     Br  0.82703096  0.46928561  0.07701867     0.00700
Br1240     Br  0.87488253  0.44459805  0.20980039    -0.03700
Br1241     Br  0.78392683  0.43204285  0.27238883     0.00800
Br1242     Br  0.80061881  0.51092008  0.15431586    -0.03000
Br1243     Br  0.78079108  0.44659651  0.12730022    -0.03900
Br1244     Br  0.91060970  0.47606764  0.15539246     0.00100
C1245       C  0.02263328  0.24538043  0.73710076     0.01500
C1246       C  0.02121831  0.25424379  0.70813854     0.04400
C1247       C  0.02625211  0.23449156  0.68574074    -0.11700
C1248       C  0.03767510  0.20678940  0.69249165     0.23600
C1249       C  0.04690674  0.20218423  0.72149662    -0.12300
C1250       C  0.03721284  0.22001498  0.74390552     0.05100
C1251       C  0.03840357  0.18232773  0.67075896     0.27500
C1252       C  0.02507165  0.15553019  0.67648474    -0.13000
C1253       C  0.02451330  0.13331037  0.65534425     0.05600
C1254       C  0.03907012  0.13615181  0.62862150    -0.08900
C1255       C  0.04374350  0.16555076  0.62119333     0.06400
C1256       C  0.04878830  0.18631551  0.64261051    -0.13300
Br1257     Br  0.07437377  0.17300904  0.73059907    -0.05400
Br1258     Br  0.01451200  0.29410945  0.69978337     0.00200
Br1259     Br  0.99379874  0.10644202  0.65776494     0.00700
Br1260     Br  0.07636221  0.21564795  0.63445309    -0.03700
Br1261     Br  0.04386820  0.20988715  0.78389209     0.00800
Br1262     Br  0.01568320  0.24716435  0.64725616    -0.03000
Br1263     Br  0.00584253  0.14915313  0.71243035    -0.03900
Br1264     Br  0.03140206  0.18048734  0.58448935     0.00100
C1265       C  0.96126436  0.23413755  0.74176213     0.01500
C1266       C  0.95046746  0.24509946  0.71536334     0.04400
C1267       C  0.94194704  0.22650158  0.69286250    -0.11700
C1268       C  0.94141048  0.19656686  0.69744044     0.23600
C1269       C  0.94725372  0.18621712  0.72581022    -0.12300
C1270       C  0.95838069  0.20466581  0.74736926     0.05100
C1271       C  0.92944726  0.17659534  0.67470663     0.27500
C1272       C  0.90092320  0.16868448  0.67624278    -0.13000
C1273       C  0.88884128  0.15072634  0.65503160     0.05600
C1274       C  0.90620211  0.13577718  0.63368175    -0.08900
C1275       C  0.93502155  0.14552313  0.63161658     0.06400
C1276       C  0.94520518  0.16713820  0.65069194    -0.13300
Br1277     Br  0.93779668  0.14722020  0.73597625    -0.05400
Br1278     Br  0.94388995  0.28556536  0.71139363     0.00200
Br1279     Br  0.84745215  0.15230017  0.65447292     0.00700
Br1280     Br  0.97696132  0.18920723  0.63918927    -0.03700
Br1281     Br  0.96798372  0.18995005  0.78522134     0.00800
Br1282     Br  0.92910263  0.24269062  0.65664762    -0.03000
Br1283     Br  0.87744158  0.18639140  0.70571123    -0.03900
Br1284     Br  0.95998939  0.13518820  0.59986834     0.00100
C1285       C  0.90832928  0.41559210  0.91566313     0.01500
C1286       C  0.92752650  0.41784704  0.89229003     0.04400
C1287       C  0.93432688  0.39365262  0.87554019    -0.11700
C1288       C  0.92596211  0.36601365  0.88466082     0.23600
C1289       C  0.91300603  0.36325407  0.91214693    -0.12300
C1290       C  0.90640026  0.38800220  0.92841199     0.05100
C1291       C  0.93245366  0.34068721  0.86581241     0.27500
C1292       C  0.92262584  0.34013692  0.83664126    -0.13000
C1293       C  0.93567595  0.32214045  0.81637161     0.05600
C1294       C  0.95598144  0.30187772  0.82557910    -0.08900
C1295       C  0.96057905  0.29790512  0.85551291     0.06400
C1296       C  0.95093453  0.31848951  0.87536127    -0.13300
Br1297     Br  0.89618174  0.32730611  0.92386172    -0.05400
Br1298     Br  0.94643474  0.45343682  0.88421580     0.00200
Br1299     Br  0.92630532  0.32617150  0.77579849     0.00700
Br1300     Br  0.96507597  0.31645116  0.91472997    -0.03700
Br1301     Br  0.89545585  0.38353693  0.96782342     0.00800
Br1302     Br  0.95724766  0.39860811  0.84117934    -0.03000
Br1303     Br  0.89209544  0.36454556  0.82340270    -0.03900
Br1304     Br  0.97707517  0.26279872  0.86948985     0.00100
C1305       C  0.01629282  0.31824070  0.81696323     0.01500
C1306       C  0.01434003  0.34732485  0.80880408     0.04400
C1307       C  0.02431442  0.36901210  0.82780295    -0.11700
C1308       C  0.03259879  0.36213398  0.85653989     0.23600
C1309       C  0.03388403  0.33292649  0.86436705    -0.12300
C1310       C  0.02932865  0.31147896  0.84358568     0.05100
C1311       C  0.04395474  0.38495791  0.87664383     0.27500
C1312       C  0.07331003  0.39027723  0.87847065    -0.13000
C1313       C  0.08423932  0.40840441  0.90042996     0.05600
C1314       C  0.06575691  0.42620369  0.91767703    -0.08900
C1315       C  0.03653413  0.42521652  0.90961031     0.06400
C1316       C  0.02600106  0.40176350  0.89382208    -0.13300
Br1317     Br  0.03784433  0.32133919  0.90382793    -0.05400
Br1318     Br  0.99969599  0.35718364  0.77101974     0.00200
Br1319     Br  0.12418501  0.40391438  0.90860363     0.00700
Br1320     Br  0.99104484  0.38645062  0.90668091    -0.03700
Br1321     Br  0.04482113  0.27378068  0.84998136     0.00800
Br1322     Br  0.02751879  0.40792270  0.81430867    -0.03000
Br1323     Br  0.09864672  0.37010478  0.85278633    -0.03900
Br1324     Br  0.01085287  0.45684355  0.91377915     0.00100
C1325       C  0.66141037  0.25763234  0.02250267     0.01500
C1326       C  0.63766617  0.26236056  0.04017996     0.04400
C1327       C  0.62047218  0.23926727  0.04871960    -0.11700
C1328       C  0.62964531  0.21084857  0.04403497     0.23600
C1329       C  0.65633479  0.20626331  0.03094487    -0.12300
C1330       C  0.67133140  0.22946685  0.01866102     0.05100
C1331       C  0.61342316  0.18619628  0.05630958     0.27500
C1332       C  0.61907715  0.17700973  0.08457478    -0.13000
C1333       C  0.59632820  0.16448940  0.09906231     0.05600
C1334       C  0.57850624  0.14419814  0.08429855    -0.08900
C1335       C  0.57561660  0.14989403  0.05393957     0.06400
C1336       C  0.58976636  0.17382318  0.04201421    -0.13300
Br1337     Br  0.67306052  0.16852391  0.03158252    -0.05400
Br1338     Br  0.63092874  0.29987377  0.05593015     0.00200
Br1339     Br  0.57787205  0.19654827  0.11739216     0.00700
Br1340     Br  0.57064765  0.19407388  0.01226139    -0.03700
Br1341     Br  0.70638568  0.22302979  0.99818256     0.00800
Br1342     Br  0.58460955  0.24746508  0.06678400    -0.03000
Br1343     Br  0.64991503  0.19309765  0.10709271    -0.03900
Br1344     Br  0.55410933  0.12781255  0.02650624     0.00100
C1345       C  0.56813863  0.14691594  0.94810955     0.01500
C1346       C  0.59586669  0.15319406  0.95958240     0.04400
C1347       C  0.60867127  0.18044813  0.95609269    -0.11700
C1348       C  0.59261245  0.20455854  0.94661459     0.23600
C1349       C  0.56311874  0.19966526  0.94082129    -0.12300
C1350       C  0.55090169  0.17181480  0.94389767     0.05100
C1351       C  0.60683136  0.23414494  0.94640956     0.27500
C1352       C  0.59905193  0.25666340  0.96568410    -0.13000
C1353       C  0.61852932  0.27903880  0.97166170     0.04400
C1354       C  0.64705888  0.27698900  0.96297064    -0.08900
C1355       C  0.65326246  0.25822685  0.94019910     0.06400
C1356       C  0.63231666  0.23857853  0.93041209    -0.13300
Br1357     Br  0.53860958  0.22990910  0.92690757    -0.05400
Br1358     Br  0.61581083  0.12604462  0.98364658     0.00200
Br1359     Br  0.60591354  0.31422017  0.98881911     0.00700
Br1360     Br  0.63952180  0.21740270  0.89571257    -0.03700
Br1361     Br  0.51281996  0.17160879  0.95875473     0.00800
Br1362     Br  0.64923611  0.18299405  0.96249411    -0.03000
Br1363     Br  0.56321308  0.25862165  0.98561561    -0.03900
Br1364     Br  0.69056801  0.25874127  0.92300651     0.00100
C1365       C  0.73834207  0.33060357  0.03056176     0.01500
C1366       C  0.73569108  0.35914878  0.03955864     0.04400
C1367       C  0.75983236  0.37439161  0.04914516    -0.11700
C1368       C  0.78661381  0.36070851  0.05121335     0.23600
C1369       C  0.78829866  0.33100291  0.04629829    -0.12300
C1370       C  0.76411499  0.31589011  0.03626479     0.05100
C1371       C  0.81209986  0.37701298  0.06162654     0.27500
C1372       C  0.83181980  0.38864114  0.04225353    -0.13000
C1373       C  0.85304214  0.40822047  0.05145773     0.05600
C1374       C  0.85953884  0.41092651  0.08154261    -0.08900
C1375       C  0.84168820  0.39420581  0.10103909     0.06400
C1376       C  0.81700488  0.38007292  0.09115520    -0.13300
Br1377     Br  0.82361706  0.31103429  0.05384192    -0.05400
Br1378     Br  0.69832932  0.37613014  0.04176111     0.00200
Br1379     Br  0.87320524  0.42838359  0.02166916     0.00700
Br1380     Br  0.79049254  0.36261027  0.11798437    -0.03700
Br1381     Br  0.76592435  0.27494102  0.03222513     0.00800
Br1382     Br  0.75584540  0.41377386  0.06032324    -0.03000
Br1383     Br  0.83345333  0.37242804  0.00463859    -0.03900
Br1384     Br  0.84989886  0.38795473  0.14177101     0.00100
C1385       C  0.73074620  0.34570874  0.96946652     0.01500
C1386       C  0.72541601  0.37512883  0.96542959     0.04400
C1387       C  0.74786778  0.39394802  0.95762614    -0.11700
C1388       C  0.77610269  0.38356186  0.95426745     0.23600
C1389       C  0.78024076  0.35333995  0.95495105    -0.12300
C1390       C  0.75761296  0.33481699  0.96202083     0.05100
C1391       C  0.80054813  0.40298215  0.94544599     0.27500
C1392       C  0.81302133  0.39860107  0.91878535    -0.13000
C1393       C  0.84177004  0.40643112  0.91430078     0.05600
C1394       C  0.85638244  0.42799130  0.93212232    -0.08900
C1395       C  0.83802221  0.43912699  0.95435589     0.06400
C1396       C  0.81265355  0.42448541  0.96300124    -0.13300
Br1397     Br  0.81631036  0.33602732  0.94465961    -0.05400
Br1398     Br  0.68688306  0.38911046  0.96831678     0.00200
Br1399     Br  0.85724981  0.38255532  0.88447179     0.00700
Br1400     Br  0.79368732  0.43541346  0.99818455    -0.03700
Br1401     Br  0.76246921  0.29394127  0.95917259     0.00800
Br1402     Br  0.73898646  0.43319636  0.94853860    -0.03000
Br1403     Br  0.78964272  0.38089958  0.88867732    -0.03900
Br1404     Br  0.83956578  0.47757525  0.96796404     0.00100
C1405       C  0.08098702  0.64755193  0.09252221     0.01500
C1406       C  0.07874615  0.65865371  0.06374525     0.04400
C1407       C  0.09797346  0.68001350  0.05388461    -0.11700
C1408       C  0.11878807  0.69210208  0.07227490     0.23600
C1409       C  0.11783249  0.68558897  0.10172150    -0.12300
C1410       C  0.09977030  0.66372203  0.11199868     0.05100
C1411       C  0.14116189  0.71252720  0.06135655     0.27500
C1412       C  0.16997874  0.70365299  0.05932077    -0.13000
C1413       C  0.19131772  0.72265599  0.05060994     0.05600
C1414       C  0.18419462  0.75038318  0.04189806    -0.08900
C1415       C  0.15624228  0.76057058  0.04640319     0.06400
C1416       C  0.13471268  0.74165273  0.05607495    -0.13300
Br1417     Br  0.14126370  0.70792634  0.12813079    -0.05400
Br1418     Br  0.04634219  0.65101735  0.03917349     0.00200
Br1419     Br  0.23103624  0.71146926  0.05250495     0.00700
Br1420     Br  0.09676075  0.75581008  0.06301668    -0.03700
Br1421     Br  0.10375607  0.65625806  0.15350023     0.00800
Br1422     Br  0.09425214  0.69499022  0.01556698    -0.03000
Br1423     Br  0.18168399  0.66570322  0.06823113    -0.03900
Br1424     Br  0.14811425  0.80066062  0.04141685     0.00100
C1425       C  0.19785832  0.73747648  0.98138635     0.01500
C1426       C  0.20993348  0.71024601  0.97637300     0.04400
C1427       C  0.19238842  0.68698014  0.96757740    -0.11700
C1428       C  0.16257627  0.69068340  0.96390641     0.23600
C1429       C  0.15170710  0.71906879  0.96509242    -0.12300
C1430       C  0.16942342  0.74213691  0.97300874     0.05100
C1431       C  0.14301539  0.66607381  0.95555963     0.27500
C1432       C  0.13370268  0.66351200  0.92730391    -0.13000
C1433       C  0.10564978  0.65413823  0.92213671     0.05600
C1434       C  0.09046705  0.63510080  0.94181317    -0.08900
C1435       C  0.10438963  0.63255786  0.96965552     0.06400
C1436       C  0.13009063  0.64806799  0.97591798    -0.13300
Br1437     Br  0.11285824  0.72797423  0.95504499    -0.05400
Br1438     Br  0.25068496  0.70541378  0.97944819     0.00200
Br1439     Br  0.08909012  0.68661982  0.90295207     0.00700
Br1440     Br  0.15170588  0.64070011  0.00989218    -0.03700
Br1441     Br  0.15587484  0.78096060  0.96941866     0.00800
Br1442     Br  0.20937637  0.65060789  0.95870032    -0.03000
Br1443     Br  0.15683567  0.67980238  0.89677344    -0.03900
Br1444     Br  0.08943339  0.61058950  0.00132076     0.00100
C1445       C  0.26540839  0.81846572  0.04843108     0.01500
C1446       C  0.26095960  0.84753798  0.05450867     0.04400
C1447       C  0.28201233  0.86320527  0.06989614    -0.11700
C1448       C  0.30982055  0.85161927  0.07408463     0.23600
C1449       C  0.31320245  0.82165931  0.06946910    -0.12300
C1450       C  0.28969060  0.80509787  0.06033063     0.05100
C1451       C  0.33511461  0.87104003  0.08058295     0.27500
C1452       C  0.34230295  0.89372159  0.06162536    -0.13000
C1453       C  0.36720717  0.91044141  0.06588399     0.05600
C1454       C  0.38437575  0.90743182  0.09112996    -0.08900
C1455       C  0.38090113  0.87998027  0.10475017     0.06400
C1456       C  0.35464531  0.86496824  0.10303210    -0.13300
Br1457     Br  0.34977225  0.80236547  0.07122271    -0.05400
Br1458     Br  0.22615476  0.86570333  0.04185594     0.00200
Br1459     Br  0.38206705  0.93044494  0.03297057     0.00700
Br1460     Br  0.34644915  0.83581634  0.13192634    -0.03700
Br1461     Br  0.29001463  0.76413027  0.06548587     0.00800
Br1462     Br  0.27250241  0.90038916  0.08488710    -0.03000
Br1463     Br  0.31812210  0.90282553  0.02958964    -0.03900
Br1464     Br  0.41131847  0.85262199  0.10423183     0.00100
C1465       C  0.37214262  0.92659910  0.95093742     0.01500
C1466       C  0.38034295  0.89771174  0.95597014     0.04400
C1467       C  0.35973454  0.87614482  0.95405549    -0.11700
C1468       C  0.33075324  0.88253778  0.95863104     0.23600
C1469       C  0.32295475  0.91177447  0.96150676    -0.12300
C1470       C  0.34405192  0.93339970  0.95967298     0.05100
C1471       C  0.31062383  0.85850144  0.96561601     0.27500
C1472       C  0.28365220  0.85555877  0.95179744    -0.13000
C1473       C  0.26341385  0.83618666  0.96311211     0.05600
C1474       C  0.27204728  0.81555824  0.98381315    -0.08900
C1475       C  0.30105949  0.81379416  0.99102534     0.06400
C1476       C  0.31889859  0.83720167  0.98603054    -0.13300
Br1477     Br  0.28405266  0.92337099  0.96917218    -0.05400
Br1478     Br  0.41958891  0.88680677  0.96277783     0.00200
Br1479     Br  0.22425788  0.83806302  0.95015030     0.00700
Br1480     Br  0.35360341  0.83962025  0.00889511    -0.03700
Br1481     Br  0.33910425  0.96501978  0.98552335     0.00800
Br1482     Br  0.37095943  0.83896535  0.93997603    -0.03000
Br1483     Br  0.27517828  0.87536611  0.91607419    -0.03900
Br1484     Br  0.31774905  0.77737375  0.00018253     0.00100
C1485       C  0.18293413  0.50827671  0.22691710     0.01500
C1486       C  0.18266461  0.50883753  0.19652595     0.04400
C1487       C  0.15690066  0.50626230  0.18110231    -0.11700
C1488       C  0.13315041  0.49269939  0.19405019     0.23600
C1489       C  0.13487162  0.48727766  0.22432447    -0.12300
C1490       C  0.15839690  0.49763012  0.24092344     0.05100
C1491       C  0.11060030  0.48031601  0.17391990     0.27500
C1492       C  0.08122330  0.48874377  0.17331262    -0.13000
C1493       C  0.06376243  0.48200645  0.14899291     0.05600
C1494       C  0.07335799  0.46242119  0.12818599    -0.08900
C1495       C  0.10325907  0.46037385  0.12564986     0.06400
C1496       C  0.12071102  0.46469489  0.14993258    -0.13300
Br1497     Br  0.10805587  0.46286328  0.24317479    -0.05400
Br1498     Br  0.21771544  0.50367318  0.17598216     0.00200
Br1499     Br  0.02947936  0.50370916  0.14057132     0.00700
Br1500     Br  0.15762597  0.44595765  0.15094030    -0.03700
Br1501     Br  0.15735837  0.49577945  0.28259174     0.00800
Br1502     Br  0.15556401  0.51883683  0.14117166    -0.03000
Br1503     Br  0.06187812  0.50448621  0.20617970    -0.03900
Br1504     Br  0.12108168  0.45592233  0.08872298     0.00100
C1505       C  0.20057937  0.56874590  0.21990090     0.01500
C1506       C  0.17515700  0.58192329  0.22857217     0.04400
C1507       C  0.15724659  0.59470373  0.20758942    -0.11700
C1508       C  0.16181761  0.58909742  0.17786181     0.23600
C1509       C  0.18955154  0.57931296  0.16971641    -0.12300
C1510       C  0.20969685  0.57238237  0.19135501     0.05100
C1511       C  0.13766070  0.59232186  0.15619464     0.27500
C1512       C  0.11073238  0.57922986  0.16022390    -0.13000
C1513       C  0.08963415  0.58013280  0.13815323     0.05600
C1514       C  0.09134903  0.60069355  0.11624835    -0.08900
C1515       C  0.12015584  0.60638564  0.10853651     0.06400
C1516       C  0.14193789  0.60635171  0.12984908    -0.13300
Br1517     Br  0.20098454  0.57212967  0.13014309    -0.05400
Br1518     Br  0.16523886  0.58269187  0.26889955     0.00200
Br1519     Br  0.08386117  0.54341480  0.12180155     0.00700
Br1520     Br  0.17159049  0.63454150  0.12860752    -0.03700
Br1521     Br  0.24964381  0.56772400  0.18231914     0.00800
Br1522     Br  0.12757658  0.62054687  0.21961701    -0.03000
Br1523     Br  0.10254841  0.55823693  0.19443531    -0.03900
Br1524     Br  0.13050418  0.60719595  0.06902146     0.00100
C1525       C  0.08463868  0.12992512  0.60123794     0.01500
C1526       C  0.10497089  0.14308627  0.62076613     0.04400
C1527       C  0.12860812  0.15846077  0.61072389    -0.11700
C1528       C  0.12847909  0.17016631  0.58260231     0.23600
C1529       C  0.10435323  0.16353867  0.56495535    -0.12300
C1530       C  0.08517622  0.14102035  0.57220834     0.05100
C1531       C  0.15308918  0.18890141  0.57189034     0.27500
C1532       C  0.14766957  0.22248618  0.56472945    -0.13000
C1533       C  0.17418043  0.24362352  0.55927369     0.05600
C1534       C  0.20681731  0.23107304  0.56058266    -0.08900
C1535       C  0.21255183  0.19763360  0.56644176     0.06400
C1536       C  0.18607788  0.17671415  0.57248983    -0.13300
Br1537     Br  0.09553106  0.18627301  0.53150560    -0.05400
Br1538     Br  0.09923446  0.14654020  0.66218006     0.00200
Br1539     Br  0.16769244  0.28364255  0.55225722     0.00700
Br1540     Br  0.19608542  0.13830929  0.58493159    -0.03700
Br1541     Br  0.05820201  0.13048241  0.54186866     0.00800
Br1542     Br  0.15887107  0.16500754  0.63836879    -0.03000
Br1543     Br  0.11172699  0.24061185  0.57213207    -0.03900
Br1544     Br  0.25040902  0.18262539  0.56278230     0.00100
C1545       C  0.08633858  0.12403913  0.45393387     0.01500
C1546       C  0.08167124  0.15387787  0.45898919     0.04400
C1547       C  0.10485078  0.17257572  0.46511783    -0.11700
C1548       C  0.13251296  0.16165243  0.47041880     0.23600
C1549       C  0.13658543  0.13200490  0.46690387    -0.12300
C1550       C  0.11284453  0.11367015  0.46475886     0.05100
C1551       C  0.15576073  0.18060551  0.48331024     0.27500
C1552       C  0.17264629  0.19699239  0.46501399    -0.13000
C1553       C  0.19441092  0.21391838  0.47647214     0.05600
C1554       C  0.19505949  0.22125595  0.50624998    -0.08900
C1555       C  0.17856278  0.20345271  0.52834480     0.06400
C1556       C  0.16258048  0.17997303  0.51355604    -0.13300
Br1557     Br  0.17436013  0.11553719  0.46735696    -0.05400
Br1558     Br  0.04355925  0.16919285  0.46118979     0.00200
Br1559     Br  0.22659613  0.22163047  0.45154840     0.00700
Br1560     Br  0.15554094  0.14175493  0.52909982    -0.03700
Br1561     Br  0.11226358  0.08589552  0.49560862     0.00800
Br1562     Br  0.09923781  0.21346113  0.46317527    -0.03000
Br1563     Br  0.16850758  0.19356856  0.42357673    -0.03900
Br1564     Br  0.18277623  0.21863229  0.60703653     0.00100
C1565       C  0.54843665  0.13763937  0.12849520     0.01500
C1566       C  0.52285687  0.15383385  0.12424746     0.04400
C1567       C  0.51126394  0.17031715  0.14696663    -0.11700
C1568       C  0.52645037  0.17509168  0.17300539     0.23600
C1569       C  0.55391809  0.16425818  0.17575046    -0.12300
C1570       C  0.56472889  0.14532691  0.15477966     0.05100
C1571       C  0.51611230  0.19509731  0.19592121     0.27500
C1572       C  0.51408363  0.22482697  0.19010609    -0.13000
C1573       C  0.50466248  0.24364059  0.21169825     0.05600
C1574       C  0.49864882  0.23308324  0.23957364    -0.08900
C1575       C  0.50603298  0.20490882  0.24681629     0.06400
C1576       C  0.51367113  0.18555696  0.22510325    -0.13300
Br1577     Br  0.57890646  0.18193095  0.20515249    -0.05400
Br1578     Br  0.50840486  0.16307831  0.08595920     0.00200
Br1579     Br  0.50190282  0.28407280  0.20355575     0.00700
Br1580     Br  0.52375284  0.14699305  0.23684790    -0.03700
Br1581     Br  0.60561668  0.14206497  0.15994443     0.00800
Br1582     Br  0.47586270  0.18969022  0.14070120    -0.03000
Br1583     Br  0.52713588  0.24062511  0.15385795    -0.03900
Br1584     Br  0.50938721  0.19430663  0.28711703     0.00100
C1585       C  0.43858256  0.22312745  0.25064217     0.01500
C1586       C  0.43137993  0.23065107  0.22214049     0.04400
C1587       C  0.42538275  0.20944623  0.20161008    -0.11700
C1588       C  0.42472255  0.18015245  0.20957325     0.23600
C1589       C  0.42792193  0.17307467  0.23927743    -0.12300
C1590       C  0.43500605  0.19452970  0.25974743     0.05100
C1591       C  0.41556415  0.15823481  0.18749651     0.27500
C1592       C  0.38696762  0.15686495  0.17940158    -0.13000
C1593       C  0.37824452  0.14016458  0.15558169     0.05600
C1594       C  0.39853127  0.12500113  0.13735679    -0.08900
C1595       C  0.42744969  0.12503404  0.14782172     0.06400
C1596       C  0.43487390  0.13987531  0.17365640    -0.13300
Br1597     Br  0.42102598  0.13447183  0.25209372    -0.05400
Br1598     Br  0.42862043  0.27064583  0.21179850     0.00200
Br1599     Br  0.33746095  0.14120120  0.14880171     0.00700
Br1600     Br  0.47036659  0.13184090  0.19252959    -0.03700
Br1601     Br  0.43755669  0.18540928  0.30037499     0.00800
Br1602     Br  0.41731801  0.22178079  0.16287663    -0.03000
Br1603     Br  0.35948789  0.17768800  0.20255191    -0.03900
Br1604     Br  0.45827047  0.10491561  0.12943517     0.00100
C1605       C  0.00704267  0.31368388  0.23412632     0.01500
C1606       C  0.99891878  0.34056049  0.24444174     0.04400
C1607       C  0.00608487  0.36535876  0.22889704    -0.11700
C1608       C  0.02409676  0.36310146  0.20421949     0.23600
C1609       C  0.03869527  0.33690605  0.20007592    -0.12300
C1610       C  0.02916221  0.31189389  0.21393963     0.05100
C1611       C  0.02491488  0.38556678  0.18073192     0.27500
C1612       C  0.01664132  0.37895266  0.15185949    -0.13000
C1613       C  0.01873865  0.39948046  0.12931751     0.05600
C1614       C  0.03013819  0.42714927  0.13497427    -0.08900
C1615       C  0.02914808  0.43486427  0.16500990     0.06400
C1616       C  0.03237483  0.41395068  0.18653984    -0.13300
Br1617     Br  0.07067777  0.33467446  0.17431627    -0.05400
Br1618     Br  0.97972727  0.34296892  0.28119107     0.00200
Br1619     Br  0.00583748  0.38870295  0.09114390     0.00700
Br1620     Br  0.05041844  0.42505932  0.22224072    -0.03700
Br1621     Br  0.04599958  0.27544674  0.20489968     0.00800
Br1622     Br  0.98983921  0.40069119  0.24279771    -0.03000
Br1623     Br  0.00448967  0.34116147  0.14209455    -0.03900
Br1624     Br  0.99837399  0.45824745  0.17865517     0.00100
C1625       C  0.89791804  0.13093921  0.40630963     0.01500
C1626       C  0.88215504  0.13852441  0.37969951     0.04400
C1627       C  0.89369674  0.15635674  0.35803488    -0.11700
C1628       C  0.91973109  0.16999468  0.36251306     0.23600
C1629       C  0.93333482  0.16730743  0.38981655    -0.12300
C1630       C  0.92274669  0.14817874  0.41129813     0.05100
C1631       C  0.92987280  0.19002258  0.33932211     0.27500
C1632       C  0.93613291  0.17924996  0.31127299    -0.13000
C1633       C  0.94170363  0.19822195  0.28836389     0.05600
C1634       C  0.94433597  0.22747230  0.29378553    -0.08900
C1635       C  0.93515253  0.23861121  0.32026745     0.06400
C1636       C  0.92702190  0.22002501  0.34269328    -0.13300
Br1637     Br  0.96475627  0.19261809  0.39904777    -0.05400
Br1638     Br  0.84119464  0.13769300  0.37477545     0.00200
Br1639     Br  0.94159884  0.18519921  0.24884237     0.00700
Br1640     Br  0.90936162  0.23626837  0.37631060    -0.03700
Br1641     Br  0.93749157  0.15344789  0.44987850     0.00800
Br1642     Br  0.87079790  0.16851902  0.32418672    -0.03000
Br1643     Br  0.93418353  0.13883231  0.30265588    -0.03900
Br1644     Br  0.93178925  0.27948595  0.32474260     0.00100
C1645       C  0.90616107  0.40460821  0.10695536     0.01500
C1646       C  0.90281502  0.37513302  0.09937084     0.04400
C1647       C  0.90547854  0.35368703  0.12063298    -0.11700
C1648       C  0.92038712  0.35948290  0.14650482     0.23600
C1649       C  0.93195348  0.38736899  0.14957210    -0.12300
C1650       C  0.92643696  0.40912719  0.12893011     0.05100
C1651       C  0.92636133  0.33637274  0.16881933     0.27500
C1652       C  0.91673802  0.33938134  0.19760979    -0.13000
C1653       C  0.92709598  0.32125335  0.21992185     0.05600
C1654       C  0.94779398  0.30022896  0.21389368    -0.08900
C1655       C  0.95396201  0.29435974  0.18467867     0.06400
C1656       C  0.94289664  0.31183618  0.16214474    -0.13300
Br1657     Br  0.95350985  0.39737562  0.18276613    -0.05400
Br1658     Br  0.90179030  0.36283492  0.05968911     0.00200
Br1659     Br  0.91178327  0.32463856  0.25833955     0.00700
Br1660     Br  0.95046368  0.30100485  0.12247299    -0.03700
Br1661     Br  0.95554299  0.43718750  0.12237556     0.00800
Br1662     Br  0.88253251  0.31969077  0.11641086    -0.03000
Br1663     Br  0.88818682  0.36751149  0.20641132    -0.03900
Br1664     Br  0.97622112  0.26100619  0.17548247     0.00100
C1665       C  0.00640270  0.22822990  0.29885642     0.01500
C1666       C  0.01177822  0.23591568  0.32787165     0.04400
C1667       C  0.02258817  0.21553039  0.34769708    -0.11700
C1668       C  0.02752431  0.18709461  0.33881943     0.23600
C1669       C  0.02475444  0.18022263  0.30921828    -0.12300
C1670       C  0.01471216  0.20090363  0.28925090     0.05100
C1671       C  0.03771323  0.16547155  0.36054171     0.27500
C1672       C  0.06623282  0.16482947  0.36917147    -0.13000
C1673       C  0.07520827  0.14653088  0.39194025     0.05600
C1674       C  0.05507084  0.12978539  0.40886463    -0.08900
C1675       C  0.02591068  0.13351532  0.40068821     0.06400
C1676       C  0.01848936  0.14749189  0.37462927    -0.13300
Br1677     Br  0.03593587  0.14293414  0.29590201    -0.05400
Br1678     Br  0.00559290  0.27468014  0.34017691     0.00200
Br1679     Br  0.11580003  0.14666429  0.39812974     0.00700
Br1680     Br  0.98432431  0.13648803  0.35482210    -0.03700
Br1681     Br  0.01444883  0.19269190  0.24839344     0.00800
Br1682     Br  0.03208101  0.22696914  0.38676840    -0.03000
Br1683     Br  0.09316464  0.18787426  0.34753104    -0.03900
Br1684     Br  0.99438788  0.12340129  0.42427897     0.00100
C1685       C  0.36125702  0.94529429  0.12173282     0.01500
C1686       C  0.34509044  0.92422528  0.13810022     0.04400
C1687       C  0.31601801  0.92748376  0.14475265    -0.11700
C1688       C  0.30407655  0.95457117  0.14520380     0.23600
C1689       C  0.31889030  0.97647584  0.13089389    -0.12300
C1690       C  0.34686426  0.97254609  0.11942265     0.05100
C1691       C  0.28040564  0.96113193  0.16644614     0.27500
C1692       C  0.25402024  0.97340584  0.15766333    -0.13000
C1693       C  0.23603504  0.98628098  0.17846271     0.05600
C1694       C  0.24157941  0.98249718  0.20835718    -0.08900
C1695       C  0.26355468  0.96348480  0.21654340     0.06400
C1696       C  0.28465036  0.95591038  0.19651499    -0.13300
Br1697     Br  0.30022698  0.01253250  0.12774405    -0.05400
Br1698     Br  0.36171991  0.89615461  0.16350216     0.00200
Br1699     Br  0.20309196  0.00785676  0.16619350     0.00700
Br1700     Br  0.32006931  0.94074415  0.21183531    -0.03700
Br1701     Br  0.36523538  0.00821302  0.11039906     0.00800
Br1702     Br  0.29329479  0.89532371  0.15807354    -0.03000
Br1703     Br  0.24193373  0.97145287  0.11767276    -0.03900
Br1704     Br  0.26440900  0.94621014  0.25447163     0.00100
C1705       C  0.08285354  0.08528310  0.41050213     0.01500
C1706       C  0.11203435  0.07946867  0.41414524     0.04400
C1707       C  0.13038024  0.08189561  0.39046470    -0.11700
C1708       C  0.12007128  0.07721253  0.36210068     0.23600
C1709       C  0.09002662  0.07571166  0.35811854    -0.12300
C1710       C  0.07162357  0.07866612  0.38222567     0.05100
C1711       C  0.14087773  0.06796793  0.33909529     0.27500
C1712       C  0.14184292  0.08016654  0.31095743    -0.13000
C1713       C  0.15801433  0.06658425  0.28905536     0.05600
C1714       C  0.17858404  0.04561959  0.29672569    -0.08900
C1715       C  0.18285548  0.04014510  0.32622446     0.06400
C1716       C  0.16140004  0.04670790  0.34587789    -0.13300
Br1717     Br  0.07310386  0.07144596  0.31990599    -0.05400
Br1718     Br  0.12048847  0.04729978  0.43850981     0.00200
Br1719     Br  0.15177313  0.07680057  0.24916100     0.00700
Br1720     Br  0.16029909  0.02484387  0.38109050    -0.03700
Br1721     Br  0.03138510  0.07204878  0.37580024     0.00800
Br1722     Br  0.16958616  0.09275810  0.39746532    -0.03000
Br1723     Br  0.12496971  0.11705212  0.30334418    -0.03900
Br1724     Br  0.22079595  0.03407475  0.34092261     0.00100
C1725       C  0.36510703  0.08586983  0.12235933     0.01500
C1726       C  0.37202224  0.07443430  0.15020912     0.04400
C1727       C  0.35154667  0.07397857  0.17223636    -0.11700
C1728       C  0.32222431  0.07451062  0.16517946     0.23600
C1729       C  0.31450054  0.07876997  0.13563999    -0.12300
C1730       C  0.33582899  0.08243224  0.11430122     0.05100
C1731       C  0.30045490  0.06589787  0.18745674     0.27500
C1732       C  0.30402954  0.04051297  0.20405959    -0.13000
C1733       C  0.28329890  0.03264121  0.22421617     0.05600
C1734       C  0.25556966  0.04378721  0.22185529    -0.08900
C1735       C  0.25182546  0.06950632  0.20614011     0.06400
C1736       C  0.27534232  0.08208088  0.19202589    -0.13300
Br1737     Br  0.27484096  0.07894291  0.12299971    -0.05400
Br1738     Br  0.40940251  0.05969328  0.15889818     0.00200
Br1739     Br  0.29469365  0.01190095  0.25845507     0.00700
Br1740     Br  0.27361579  0.12195373  0.18177190    -0.03700
Br1741     Br  0.32653847  0.06332634  0.07876807     0.00800
Br1742     Br  0.36430757  0.07820457  0.21195095    -0.03000
Br1743     Br  0.33524889  0.01427764  0.19864900    -0.03900
Br1744     Br  0.21497824  0.08749435  0.20290382     0.00100
C1745       C  0.17605088  0.98162515  0.29305421     0.01500
C1746       C  0.19049147  0.97207148  0.31805961     0.04400
C1747       C  0.17503049  0.96558984  0.34330044    -0.11700
C1748       C  0.14462771  0.96186942  0.34142448     0.23600
C1749       C  0.13238898  0.96210423  0.31313782    -0.12300
C1750       C  0.14692035  0.97537001  0.29006712     0.05100
C1751       C  0.12499011  0.96059895  0.36761501     0.27500
C1752       C  0.13187127  0.94473476  0.39266082    -0.13000
C1753       C  0.11446200  0.94715235  0.41712090     0.05600
C1754       C  0.08481277  0.95387045  0.41402183    -0.08900
C1755       C  0.07990232  0.97453395  0.39225691     0.06400
C1756       C  0.09976201  0.97779843  0.36917495    -0.13300
Br1757     Br  0.09617794  0.94391952  0.30566368    -0.05400
Br1758     Br  0.23150347  0.96795269  0.31759580     0.00200
Br1759     Br  0.13381564  0.95203880  0.45354867     0.00700
Br1760     Br  0.09255997  0.00687462  0.34090107    -0.03700
Br1761     Br  0.12693224  0.98568982  0.25496509     0.00800
Br1762     Br  0.19740265  0.96631676  0.37891280    -0.03000
Br1763     Br  0.15883262  0.91336503  0.39250019    -0.03900
Br1764     Br  0.05364978  0.00505596  0.39992336     0.00100
C1765       C  0.18811703  0.30588892  0.99829572     0.01500
C1766       C  0.19701143  0.33083901  0.98407522     0.04400
C1767       C  0.17635013  0.34900153  0.97181978    -0.11700
C1768       C  0.14722459  0.34467566  0.97818338     0.23600
C1769       C  0.13880621  0.31688007  0.98796130    -0.12300
C1770       C  0.15987175  0.29691718  0.99537811     0.05100
C1771       C  0.12668465  0.36913334  0.97514306     0.27500
C1772       C  0.13103257  0.39552207  0.98964407    -0.13000
C1773       C  0.11110893  0.41811422  0.98633817     0.05600
C1774       C  0.08820575  0.41583657  0.96644704    -0.08900
C1775       C  0.08043778  0.38714400  0.96006680     0.06400
C1776       C  0.10122592  0.36557355  0.95969960    -0.13300
Br1777     Br  0.09991482  0.30407314  0.99274861    -0.05400
Br1778     Br  0.23690560  0.34031228  0.98156937     0.00200
Br1779     Br  0.10941517  0.44659990  0.01575470     0.00700
Br1780     Br  0.09968186  0.33675763  0.93027250    -0.03700
Br1781     Br  0.15117001  0.25679218  0.99952421     0.00800
Br1782     Br  0.18782159  0.37832081  0.94512986    -0.03000
Br1783     Br  0.16438347  0.40187484  0.01309322    -0.03900
Br1784     Br  0.04131479  0.37576962  0.96081143     0.00100
C1785       C  0.26196995  0.24053413  0.07366304     0.01500
C1786       C  0.29016041  0.24984005  0.07496709     0.04400
C1787       C  0.31238806  0.22982525  0.07619444    -0.11700
C1788       C  0.30628381  0.20044558  0.08278699     0.23600
C1789       C  0.27766564  0.19349311  0.08995135    -0.12300
C1790       C  0.25539376  0.21296697  0.08364425     0.05100
C1791       C  0.32930737  0.17769515  0.08386724     0.27500
C1792       C  0.32726434  0.15137437  0.06841213    -0.13000
C1793       C  0.34924403  0.13047383  0.07072237     0.05600
C1794       C  0.37183300  0.13421464  0.09057969    -0.08900
C1795       C  0.37760191  0.16334439  0.09689695     0.06400
C1796       C  0.35513698  0.18311782  0.09847140    -0.13300
Br1797     Br  0.26875857  0.15833683  0.10973776    -0.05400
Br1798     Br  0.29736642  0.29046413  0.07523583     0.00200
Br1799     Br  0.35641531  0.10662396  0.03794502     0.00700
Br1800     Br  0.35678575  0.21210062  0.12784485    -0.03700
Br1801     Br  0.21610897  0.20263297  0.08957649     0.00800
Br1802     Br  0.34949083  0.24492684  0.06641270    -0.03000
Br1803     Br  0.29554913  0.14341733  0.04333652    -0.03900
Br1804     Br  0.41601045  0.17710376  0.09848190     0.00100
C1805       C  0.17951850  0.30973186  0.06127569     0.01500
C1806       C  0.15218833  0.29920566  0.06852648     0.04400
C1807       C  0.12946928  0.31828647  0.07467925    -0.11700
C1808       C  0.13437838  0.34810069  0.07639363     0.23600
C1809       C  0.16286018  0.35793233  0.07364541    -0.12300
C1810       C  0.18485322  0.33919071  0.06486570     0.05100
C1811       C  0.11104903  0.36863842  0.08552023     0.27500
C1812       C  0.09060826  0.37969254  0.06600503    -0.13000
C1813       C  0.07255199  0.40305222  0.07302195     0.05600
C1814       C  0.07170147  0.41404628  0.10208632    -0.08900
C1815       C  0.08994521  0.39872675  0.12275074     0.06400
C1816       C  0.10981824  0.37763096  0.11415971    -0.13300
Br1817     Br  0.17259742  0.39648079  0.08489101    -0.05400
Br1818     Br  0.14664873  0.25865481  0.07303476     0.00200
Br1819     Br  0.04964146  0.41707278  0.04085630     0.00700
Br1820     Br  0.13605437  0.35990188  0.14182603    -0.03700
Br1821     Br  0.22304254  0.35352644  0.05976383     0.00800
Br1822     Br  0.09200884  0.30332698  0.08266632    -0.03000
Br1823     Br  0.08432993  0.35995865  0.03072083    -0.03900
Br1824     Br  0.09185050  0.40618363  0.16360636     0.00100
C1825       C  0.26959513  0.23970569  0.01041450     0.01500
C1826       C  0.26408812  0.21085724  0.00413820     0.04400
C1827       C  0.28493184  0.19405331  0.99051366    -0.11700
C1828       C  0.31272299  0.20487659  0.98566776     0.23600
C1829       C  0.31749911  0.23435282  0.98993106    -0.12300
C1830       C  0.29564279  0.25186751  0.00117006     0.05100
C1831       C  0.33544632  0.18606017  0.97285729     0.27500
C1832       C  0.35795734  0.17468735  0.98965442    -0.13000
C1833       C  0.37644305  0.15327777  0.97901562     0.05600
C1834       C  0.37330049  0.14329650  0.94978833    -0.08900
C1835       C  0.35369571  0.15972967  0.93162636     0.06400
C1836       C  0.33502375  0.18024594  0.94331011    -0.13300
Br1837     Br  0.35302941  0.25115760  0.97772619    -0.05400
Br1838     Br  0.22684744  0.19502791  0.01185332     0.00200
Br1839     Br  0.40721357  0.14238814  0.00531417     0.00700
Br1840     Br  0.30893129  0.20180547  0.91874419    -0.03700
Br1841     Br  0.30049581  0.29270914  0.00115123     0.00800
Br1842     Br  0.27352142  0.15774138  0.97513957    -0.03000
Br1843     Br  0.36639127  0.19163523  0.02601067    -0.03900
Br1844     Br  0.34892115  0.15407712  0.89041010     0.00100
C1845       C  0.51458952  0.73495968  0.73497964     0.01500
C1846       C  0.51797177  0.74627240  0.70691309     0.04400
C1847       C  0.52633769  0.72832160  0.68415588    -0.11700
C1848       C  0.53181462  0.69902508  0.68952124     0.23600
C1849       C  0.53132059  0.68866971  0.71829730    -0.12300
C1850       C  0.52359254  0.70690413  0.74098722     0.05100
C1851       C  0.54032718  0.67939535  0.66567844     0.27500
C1852       C  0.52021296  0.66847491  0.64617332    -0.13000
C1853       C  0.52740416  0.64695069  0.62588992     0.05600
C1854       C  0.55661410  0.63823777  0.62175568    -0.08900
C1855       C  0.57693510  0.65221103  0.64120283     0.06400
C1856       C  0.56866422  0.67135697  0.66309578    -0.13300
Br1857     Br  0.54156930  0.64956626  0.72692634    -0.05400
Br1858     Br  0.51238959  0.78660472  0.69986195     0.00200
Br1859     Br  0.49543722  0.63435118  0.60356159     0.00700
Br1860     Br  0.59659258  0.68991080  0.68836982    -0.03700
Br1861     Br  0.52811744  0.69460692  0.78057872     0.00800
Br1862     Br  0.52966659  0.74417111  0.64580804    -0.03000
Br1863     Br  0.48303270  0.68598450  0.64568976    -0.03900
Br1864     Br  0.61746688  0.65089873  0.63718859     0.00100
C1865       C  0.59020991  0.59765527  0.60966009     0.01500
C1866       C  0.61883660  0.59295809  0.60111869     0.04400
C1867       C  0.63998643  0.59131534  0.62276661    -0.11700
C1868       C  0.63314137  0.57952727  0.64997293     0.23600
C1869       C  0.60392193  0.57247617  0.65451472    -0.12300
C1870       C  0.58237608  0.58267480  0.63525089     0.05100
C1871       C  0.65519505  0.57522173  0.67378890     0.27500
C1872       C  0.68058897  0.55875108  0.67008809    -0.13000
C1873       C  0.69651927  0.54991691  0.69458161     0.05600
C1874       C  0.68703974  0.55608656  0.72264964    -0.08900
C1875       C  0.66566397  0.57689671  0.72606947     0.06400
C1876       C  0.64996712  0.58659618  0.70173366    -0.13300
Br1877     Br  0.59285691  0.55014505  0.68741333    -0.05400
Br1878     Br  0.62405454  0.56009812  0.57700710     0.00200
Br1879     Br  0.73323479  0.53180336  0.68996814     0.00700
Br1880     Br  0.62147569  0.61587677  0.70707231    -0.03700
Br1881     Br  0.54266788  0.57669173  0.64467073     0.00800
Br1882     Br  0.67564986  0.60989788  0.61520833    -0.03000
Br1883     Br  0.69487435  0.54672165  0.63275304    -0.03900
Br1884     Br  0.65857031  0.59311526  0.76370609     0.00100
C1885       C  0.69577772  0.74616129  0.55900730     0.01500
C1886       C  0.66817062  0.75683743  0.55475729     0.04400
C1887       C  0.64443357  0.73936759  0.56060357    -0.11700
C1888       C  0.64851531  0.71273444  0.57553005     0.23600
C1889       C  0.67588462  0.70801814  0.58813282    -0.12300
C1890       C  0.69981437  0.72308743  0.57795256     0.05100
C1891       C  0.62612528  0.68912990  0.57588043     0.27500
C1892       C  0.59784930  0.69447991  0.58405002    -0.13000
C1893       C  0.57646123  0.67373020  0.57926283     0.05600
C1894       C  0.58364576  0.64427851  0.57542871    -0.08900
C1895       C  0.61024653  0.64034386  0.56228804     0.06400
C1896       C  0.63183200  0.66157468  0.56432036    -0.13300
Br1897     Br  0.68071686  0.68309935  0.62077508    -0.05400
Br1898     Br  0.66363142  0.79641813  0.54361700     0.00200
Br1899     Br  0.53833648  0.68713529  0.57222242     0.00700
Br1900     Br  0.66912747  0.65145353  0.55241449    -0.03700
Br1901     Br  0.73780262  0.71265913  0.59026953     0.00800
Br1902     Br  0.60811741  0.75367710  0.54670593    -0.03000
Br1903     Br  0.58948657  0.72630995  0.60862793    -0.03900
Br1904     Br  0.61268468  0.61183559  0.53274704     0.00100
C1905       C  0.40605242  0.41407718  0.62736972     0.01500
C1906       C  0.38658924  0.39451728  0.64201456     0.04400
C1907       C  0.39581843  0.36852862  0.65421695    -0.11700
C1908       C  0.42472490  0.36305674  0.65748435     0.23600
C1909       C  0.44425697  0.38396973  0.64866133    -0.12300
C1910       C  0.43577841  0.40833068  0.63217198     0.05100
C1911       C  0.43402176  0.33731106  0.67445862     0.27500
C1912       C  0.43903369  0.33955095  0.70455930    -0.13000
C1913       C  0.44745615  0.31542679  0.72073164     0.05600
C1914       C  0.45079858  0.28881224  0.70701568    -0.08900
C1915       C  0.44293299  0.28588825  0.67775108     0.06400
C1916       C  0.43523626  0.31012297  0.66132367    -0.13300
Br1917     Br  0.48165820  0.38103813  0.66463865    -0.05400
Br1918     Br  0.34673626  0.40236255  0.64892904     0.00200
Br1919     Br  0.45332560  0.31879917  0.76191599     0.00700
Br1920     Br  0.42592802  0.30558911  0.62105393    -0.03700
Br1921     Br  0.46578592  0.43478790  0.62244510     0.00800
Br1922     Br  0.36890714  0.34094565  0.66964651    -0.03000
Br1923     Br  0.43424690  0.37566010  0.72385178    -0.03900
Br1924     Br  0.44052509  0.24831632  0.66099073     0.00100
C1925       C  0.37989728  0.45972931  0.63573406     0.01500
C1926       C  0.35461873  0.47604190  0.63393206     0.04400
C1927       C  0.33573666  0.47785544  0.65786263    -0.11700
C1928       C  0.34262957  0.46563916  0.68537249     0.23600
C1929       C  0.36976809  0.45332168  0.68806524    -0.12300
C1930       C  0.38930671  0.45535930  0.66518911     0.05100
C1931       C  0.32285025  0.46825775  0.71135275     0.27500
C1932       C  0.33148897  0.48132451  0.73810795    -0.13000
C1933       C  0.31074447  0.48978790  0.75844880     0.05600
C1934       C  0.28158988  0.48585778  0.75253951    -0.08900
C1935       C  0.27363176  0.46782829  0.72949419     0.06400
C1936       C  0.29418195  0.45862599  0.70932656    -0.13300
Br1937     Br  0.37774201  0.42599121  0.71842207    -0.05400
Br1938     Br  0.35408993  0.50778065  0.60781986     0.00200
Br1939     Br  0.32196941  0.50491988  0.79566608     0.00700
Br1940     Br  0.28316235  0.43138392  0.68001811    -0.03700
Br1941     Br  0.42832033  0.45976842  0.67699067     0.00800
Br1942     Br  0.30024217  0.49676159  0.65159353    -0.03000
Br1943     Br  0.37100352  0.48781559  0.74906982    -0.03900
Br1944     Br  0.23479287  0.45446052  0.72666995     0.00100
C1945       C  0.26788085  0.31485686  0.55496436     0.01500
C1946       C  0.27205102  0.31847175  0.58584941     0.04400
C1947       C  0.29134767  0.34013755  0.59618632    -0.11700
C1948       C  0.30766744  0.35604261  0.57610000     0.23600
C1949       C  0.30263477  0.35062653  0.54686897    -0.12300
C1950       C  0.27663683  0.33845093  0.53893242     0.05100
C1951       C  0.32888483  0.37894315  0.58367835     0.27500
C1952       C  0.32007315  0.40770655  0.58597726    -0.13000
C1953       C  0.34037106  0.43023091  0.58662105     0.05600
C1954       C  0.37008410  0.42414195  0.58883471    -0.08900
C1955       C  0.37773644  0.39634690  0.57851685     0.06400
C1956       C  0.35813190  0.37356759  0.58037191    -0.13300
Br1957     Br  0.33463585  0.34688732  0.52186181    -0.05400
Br1958     Br  0.24767934  0.30087221  0.61433659     0.00200
Br1959     Br  0.32846390  0.46276265  0.56432800     0.00700
Br1960     Br  0.37160787  0.33469535  0.58147444    -0.03700
Br1961     Br  0.24611765  0.36602936  0.53926367     0.00800
Br1962     Br  0.29626630  0.34700870  0.63689484    -0.03000
Br1963     Br  0.28013916  0.41670743  0.58947515    -0.03900
Br1964     Br  0.41565320  0.38798823  0.56497998     0.00100
C1965       C  0.58706765  0.45350708  0.42050971     0.01500
C1966       C  0.61667755  0.45586850  0.42810257     0.04400
C1967       C  0.63841657  0.45613205  0.40631579    -0.11700
C1968       C  0.63098774  0.45597537  0.37617423     0.23600
C1969       C  0.60162739  0.45562558  0.36937173    -0.12300
C1970       C  0.58116603  0.46063306  0.39093185     0.05100
C1971       C  0.65271887  0.46202243  0.35226673     0.27500
C1972       C  0.64763664  0.48324120  0.33042319    -0.13000
C1973       C  0.66804419  0.48835722  0.30879024     0.05600
C1974       C  0.69642464  0.47958080  0.31274965    -0.08900
C1975       C  0.70167157  0.45781213  0.33341429     0.06400
C1976       C  0.67903255  0.44700445  0.35061316    -0.13300
Br1977     Br  0.58861108  0.44279635  0.33175100    -0.05400
Br1978     Br  0.62678961  0.47490338  0.46349619     0.00200
Br1979     Br  0.65586416  0.50206522  0.27140265     0.00700
Br1980     Br  0.68322399  0.41011073  0.36885065    -0.03700
Br1981     Br  0.54461812  0.47542141  0.37884283     0.00800
Br1982     Br  0.67777134  0.46216212  0.41842753    -0.03000
Br1983     Br  0.61463497  0.50803398  0.32963302    -0.03900
Br1984     Br  0.73956879  0.44266790  0.33823502     0.00100
C1985       C  0.57556400  0.41191526  0.46031048     0.01500
C1986       C  0.59495515  0.41899363  0.48239362     0.04400
C1987       C  0.61694169  0.39968265  0.48980290    -0.11700
C1988       C  0.61687611  0.37136276  0.47907272     0.23600
C1989       C  0.59248061  0.36239877  0.46361929    -0.12300
C1990       C  0.57017513  0.38190194  0.45823901     0.05100
C1991       C  0.64073543  0.35080991  0.48596412     0.27500
C1992       C  0.66854134  0.35557233  0.47512633    -0.13000
C1993       C  0.69145785  0.33771221  0.48365404     0.05600
C1994       C  0.68705042  0.31572261  0.50405045    -0.08900
C1995       C  0.65897544  0.30875905  0.51203651     0.06400
C1996       C  0.63582744  0.32594167  0.50293849    -0.13300
Br1997     Br  0.59215029  0.32629129  0.44363414    -0.05400
Br1998     Br  0.58443701  0.44738031  0.51040335     0.00200
Br1999     Br  0.72829168  0.34221261  0.46594068     0.00700
Br2000     Br  0.59766125  0.31450975  0.51397204    -0.03700
Br2001     Br  0.53223793  0.36684713  0.45269165     0.00800
Br2002     Br  0.64741193  0.41370023  0.51285938    -0.03000
Br2003     Br  0.67534778  0.38587994  0.44769383    -0.03900
Br2004     Br  0.65232580  0.27447404  0.53441023     0.00100
C2005       C  0.55131071  0.41508277  0.41171898     0.01500
C2006       C  0.52246807  0.41485861  0.40102437     0.04400
C2007       C  0.51485923  0.39729030  0.37732029    -0.11700
C2008       C  0.53435979  0.37879372  0.36425046     0.23600
C2009       C  0.56289418  0.38035808  0.37222731    -0.12300
C2010       C  0.57138518  0.39707586  0.39597615     0.05100
C2011       C  0.52475228  0.35618877  0.34354106     0.27500
C2012       C  0.52717008  0.32702572  0.35144451    -0.13000
C2013       C  0.51769330  0.30578053  0.33240819     0.05600
C2014       C  0.50059333  0.31341707  0.30850068    -0.08900
C2015       C  0.49993540  0.34209239  0.29916860     0.06400
C2016       C  0.51392834  0.36320244  0.31573608    -0.13300
Br2017     Br  0.59054590  0.36013800  0.34876038    -0.05400
Br2018     Br  0.49178670  0.43804634  0.41574864     0.00200
Br2019     Br  0.52919533  0.26644997  0.33831605     0.00700
Br2020     Br  0.51942380  0.40105408  0.30001470    -0.03700
Br2021     Br  0.61157949  0.39283140  0.40536880     0.00800
Br2022     Br  0.47800994  0.40053561  0.36027928    -0.03000
Br2023     Br  0.54195536  0.31545007  0.38867913    -0.03900
Br2024     Br  0.48113903  0.35199899  0.26327950     0.00100
C2025       C  0.40077538  0.64590888  0.41882133     0.01500
C2026       C  0.38856426  0.67364044  0.42260553     0.04400
C2027       C  0.38830425  0.69404345  0.40002910    -0.11700
C2028       C  0.40738235  0.69200579  0.37738915     0.23600
C2029       C  0.42254056  0.66599552  0.37475022    -0.12300
C2030       C  0.42213679  0.64523986  0.39738749     0.05100
C2031       C  0.41638909  0.71939064  0.36209728     0.27500
C2032       C  0.40942475  0.72482884  0.33284006    -0.13000
C2033       C  0.42263308  0.74760764  0.31773533     0.05600
C2034       C  0.44318647  0.76506990  0.33195068    -0.08900
C2035       C  0.44527783  0.76342541  0.36232209     0.06400
C2036       C  0.43116731  0.74137399  0.37751697    -0.13300
Br2037     Br  0.44079101  0.65685049  0.33889890    -0.05400
Br2038     Br  0.39180827  0.69036652  0.46015994     0.00200
Br2039     Br  0.41418329  0.75289867  0.27702413     0.00700
Br2040     Br  0.43447239  0.74085589  0.41936620    -0.03700
Br2041     Br  0.45421044  0.62038092  0.40258107     0.00800
Br2042     Br  0.36258765  0.72586330  0.39909445    -0.03000
Br2043     Br  0.37974821  0.70302522  0.31440953    -0.03900
Br2044     Br  0.46823006  0.79109980  0.38292223     0.00100
C2045       C  0.35530075  0.62892916  0.44264670     0.01500
C2046       C  0.33333778  0.63891859  0.42300284     0.04400
C2047       C  0.32034158  0.66587745  0.42771691    -0.11700
C2048       C  0.31497102  0.67399381  0.45643724     0.23600
C2049       C  0.32776390  0.65638032  0.47793168    -0.12300
C2050       C  0.35118120  0.63829279  0.47153729     0.05100
C2051       C  0.29315726  0.69705932  0.46412788     0.27500
C2052       C  0.30159523  0.72558350  0.47063578    -0.13000
C2053       C  0.28290093  0.74455558  0.48473892     0.05600
C2054       C  0.25517521  0.73587570  0.49180945    -0.08900
C2055       C  0.24451781  0.71051001  0.47920129     0.06400
C2056       C  0.26360458  0.69066250  0.46646248    -0.13300
Br2057     Br  0.30524178  0.64501628  0.50940177    -0.05400
Br2058     Br  0.30154826  0.61331645  0.41933480     0.00200
Br2059     Br  0.29530777  0.78251698  0.49558512     0.00700
Br2060     Br  0.24905655  0.65431999  0.45381664    -0.03700
Br2061     Br  0.37910408  0.63341016  0.50181480     0.00800
Br2062     Br  0.29996548  0.68424375  0.39648302    -0.03000
Br2063     Br  0.33879575  0.73977714  0.46222624    -0.03900
Br2064     Br  0.20442531  0.70164755  0.48228057     0.00100
C2065       C  0.27877487  0.55743678  0.29165408     0.01500
C2066       C  0.30792626  0.55242308  0.28603622     0.04400
C2067       C  0.32930856  0.56468890  0.30394070    -0.11700
C2068       C  0.32151590  0.58209870  0.32756604     0.23600
C2069       C  0.29310270  0.59174029  0.32873185    -0.12300
C2070       C  0.27162102  0.57868555  0.31192896     0.05100
C2071       C  0.34128576  0.58677261  0.35312851     0.27500
C2072       C  0.33771894  0.57101388  0.37902953    -0.13000
C2073       C  0.35448783  0.57661436  0.40428853     0.05600
C2074       C  0.37640771  0.59779380  0.40311106    -0.08900
C2075       C  0.38481279  0.60457517  0.37433411     0.06400
C2076       C  0.36406341  0.60598293  0.35229376    -0.13300
Br2077     Br  0.28432154  0.62543340  0.35014601    -0.05400
Br2078     Br  0.31859669  0.53092347  0.25239773     0.00200
Br2079     Br  0.34319168  0.55792166  0.43991083     0.00700
Br2080     Br  0.37045609  0.62948696  0.31898805    -0.03700
Br2081     Br  0.23248316  0.59041419  0.31695054     0.00800
Br2082     Br  0.36890694  0.56039213  0.29371186    -0.03000
Br2083     Br  0.30638815  0.54576043  0.38146090    -0.03900
Br2084     Br  0.41515884  0.58107769  0.36010168     0.00100
C2085       C  0.70271708  0.72854120  0.49820126     0.01500
C2086       C  0.67789269  0.73593250  0.48277619     0.04400
C2087       C  0.65877449  0.71467859  0.47323963    -0.11700
C2088       C  0.66412593  0.68511640  0.47891862     0.23600
C2089       C  0.69164645  0.67786687  0.49069548    -0.12300
C2090       C  0.71043828  0.69960723  0.50041985     0.05100
C2091       C  0.64119037  0.66256563  0.47297270     0.27500
C2092       C  0.61289493  0.66506657  0.48386575    -0.13000
C2093       C  0.59060378  0.64640166  0.47472718     0.05600
C2094       C  0.59641079  0.62370548  0.45530931    -0.08900
C2095       C  0.62576812  0.61695368  0.45244927     0.06400
C2096       C  0.64682025  0.63806350  0.45621216    -0.13300
Br2097     Br  0.70516659  0.63877621  0.49474010    -0.05400
Br2098     Br  0.67053171  0.77548899  0.47341565     0.00200
Br2099     Br  0.55229409  0.65339592  0.48817545     0.00700
Br2100     Br  0.67897870  0.63626384  0.43067734    -0.03700
Br2101     Br  0.74784443  0.69017582  0.51561039     0.00800
Br2102     Br  0.62637221  0.72794356  0.45111523    -0.03000
Br2103     Br  0.60286301  0.69501345  0.50945897    -0.03900
Br2104     Br  0.63822818  0.57853139  0.45923120     0.00100
C2105       C  0.55783721  0.63764294  0.41735838     0.01500
C2106       C  0.56880676  0.66628480  0.41839592     0.04400
C2107       C  0.55393601  0.68850174  0.40528759    -0.11700
C2108       C  0.54054261  0.68300672  0.37888158     0.23600
C2109       C  0.53094642  0.65442293  0.37431162    -0.12300
C2110       C  0.53683760  0.63265181  0.39530463     0.05100
C2111       C  0.53175726  0.70730949  0.35921850     0.27500
C2112       C  0.50308842  0.70957120  0.35269804    -0.13000
C2113       C  0.49362969  0.72909119  0.33175308     0.05600
C2114       C  0.50823513  0.75519943  0.32822565    -0.08900
C2115       C  0.53703269  0.75573288  0.33901954     0.06400
C2116       C  0.54956898  0.73028977  0.35070177    -0.13300
Br2117     Br  0.51426565  0.64387893  0.33747254    -0.05400
Br2118     Br  0.60838647  0.67395925  0.41190776     0.00200
Br2119     Br  0.47694023  0.71234446  0.29781924     0.00700
Br2120     Br  0.59036820  0.72738769  0.35522596    -0.03700
Br2121     Br  0.52234333  0.59463775  0.38831416     0.00800
Br2122     Br  0.55541566  0.72602471  0.42210380    -0.03000
Br2123     Br  0.47928173  0.69753985  0.38353926    -0.03900
Br2124     Br  0.55888738  0.79054511  0.34194290     0.00100
C2125       C  0.70866669  0.54066666  0.32441013     0.01500
C2126       C  0.68592391  0.55680487  0.31259674     0.04400
C2127       C  0.66359086  0.56647080  0.33032946    -0.11700
C2128       C  0.66577923  0.56449585  0.36094223     0.23600
C2129       C  0.69099339  0.55229274  0.37297407    -0.12300
C2130       C  0.71145039  0.53908094  0.35485161     0.05100
C2131       C  0.64167712  0.57571988  0.37957998     0.27500
C2132       C  0.63418953  0.60450400  0.37832506    -0.13000
C2133       C  0.60687271  0.61301123  0.38727355     0.05600
C2134       C  0.59002260  0.59620673  0.40720810    -0.08900
C2135       C  0.59666048  0.56668684  0.40643199     0.06400
C2136       C  0.62256142  0.55721927  0.39376472    -0.13300
Br2137     Br  0.69829452  0.55457453  0.41401340    -0.05400
Br2138     Br  0.68550147  0.56666414  0.27203740     0.00200
Br2139     Br  0.58922388  0.63225442  0.35486835     0.00700
Br2140     Br  0.63438535  0.51979228  0.40064989    -0.03700
Br2141     Br  0.74376804  0.51943458  0.37156226     0.00800
Br2142     Br  0.62931302  0.58091509  0.31179273    -0.03000
Br2143     Br  0.65897494  0.63172628  0.35908691    -0.03900
Br2144     Br  0.56874124  0.53800482  0.41535399     0.00100
C2145       C  0.35973886  0.46372400  0.41855464     0.01500
C2146       C  0.32972366  0.46345613  0.42357700     0.04400
C2147       C  0.31054718  0.46276165  0.40019065    -0.11700
C2148       C  0.31852179  0.47468571  0.37355540     0.23600
C2149       C  0.34710392  0.48546802  0.37193039    -0.12300
C2150       C  0.36704823  0.48133655  0.39514025     0.05100
C2151       C  0.29635731  0.47905377  0.34958373     0.27500
C2152       C  0.30157559  0.46933450  0.32099705    -0.13000
C2153       C  0.28387650  0.47826712  0.29763713     0.05600
C2154       C  0.26117585  0.49723073  0.30250999    -0.08900
C2155       C  0.25240646  0.50193197  0.33101974     0.06400
C2156       C  0.26956811  0.49300722  0.35463202    -0.13300
Br2157     Br  0.36003993  0.50583262  0.33878890    -0.05400
Br2158     Br  0.31443650  0.47149926  0.46102726     0.00200
Br2159     Br  0.28908160  0.46297351  0.25935340     0.00700
Br2160     Br  0.25491238  0.50173733  0.39286921    -0.03700
Br2161     Br  0.39326666  0.51202516  0.40368608     0.00800
Br2162     Br  0.27802360  0.43774026  0.40316875    -0.03000
Br2163     Br  0.33178560  0.44241784  0.31366725    -0.03900
Br2164     Br  0.21573246  0.51961535  0.33729139     0.00100
C2165       C  0.35746109  0.41745090  0.44423061     0.01500
C2166       C  0.34245216  0.40103297  0.42191368     0.04400
C2167       C  0.32104923  0.38089701  0.42856723    -0.11700
C2168       C  0.31034724  0.37904427  0.45649197     0.23600
C2169       C  0.32126756  0.39827281  0.47745331    -0.12300
C2170       C  0.34688512  0.41386743  0.47278016     0.05100
C2171       C  0.29022146  0.35489204  0.46401192     0.27500
C2172       C  0.26038313  0.35872084  0.46677542    -0.13000
C2173       C  0.24323157  0.33623438  0.47780857     0.05600
C2174       C  0.25630877  0.31095273  0.48802324    -0.08900
C2175       C  0.28464997  0.30531472  0.48026066     0.06400
C2176       C  0.30104789  0.32671149  0.46692409    -0.13300
Br2177     Br  0.29788437  0.40906943  0.50945350    -0.05400
Br2178     Br  0.34655436  0.40713271  0.38080678     0.00200
Br2179     Br  0.20251153  0.34066229  0.48132684     0.00700
Br2180     Br  0.33897150  0.31724020  0.45467917    -0.03700
Br2181     Br  0.36488282  0.43114465  0.50598445     0.00800
Br2182     Br  0.30326124  0.35764834  0.39858189    -0.03000
Br2183     Br  0.24290714  0.39421049  0.45543559    -0.03900
Br2184     Br  0.30154432  0.26877225  0.48985766     0.00100
C2185       C  0.40192590  0.42222884  0.41583011     0.01500
C2186       C  0.40916503  0.42723416  0.38629234     0.04400
C2187       C  0.41220449  0.40412837  0.36656843    -0.11700
C2188       C  0.41228654  0.37539608  0.37670535     0.23600
C2189       C  0.40869916  0.37081056  0.40657461    -0.12300
C2190       C  0.40792839  0.39388439  0.42598802     0.05100
C2191       C  0.42055495  0.35044111  0.35770724     0.27500
C2192       C  0.40541041  0.34357888  0.33184740    -0.13000
C2193       C  0.41644828  0.32289928  0.31259974     0.05600
C2194       C  0.43910093  0.30495413  0.32160711    -0.08900
C2195       C  0.44886825  0.30718103  0.35027630     0.06400
C2196       C  0.44313933  0.33180232  0.36638498    -0.13300
Br2197     Br  0.40081323  0.33275971  0.42078558    -0.05400
Br2198     Br  0.42862844  0.46149326  0.37536656     0.00200
Br2199     Br  0.40024713  0.31913019  0.27431115     0.00700
Br2200     Br  0.46773685  0.33905358  0.39951595    -0.03700
Br2201     Br  0.41269851  0.38524766  0.46671750     0.00800
Br2202     Br  0.41648014  0.41295058  0.32571039    -0.03000
Br2203     Br  0.36827145  0.35964958  0.32391459    -0.03900
Br2204     Br  0.46483954  0.27422363  0.36938506     0.00100
C2205       C  0.57215334  0.45261358  0.62921456     0.01500
C2206       C  0.58970951  0.47691119  0.62905657     0.04400
C2207       C  0.61047297  0.48047939  0.65092723    -0.11700
C2208       C  0.60869437  0.46603040  0.67764862     0.23600
C2209       C  0.58442687  0.44869949  0.68163214    -0.12300
C2210       C  0.56516268  0.44396981  0.65802354     0.05100
C2211       C  0.63052954  0.47195405  0.70139323     0.27500
C2212       C  0.65928760  0.46311776  0.69831374    -0.13000
C2213       C  0.68124114  0.47447176  0.71602234     0.05600
C2214       C  0.67482389  0.49498131  0.73721251    -0.08900
C2215       C  0.64585955  0.50050790  0.74331034     0.06400
C2216       C  0.62380578  0.48914179  0.72562179    -0.13300
Br2217     Br  0.58008186  0.42759108  0.71716819    -0.05400
Br2218     Br  0.57321077  0.51219657  0.61593884     0.00200
Br2219     Br  0.72007049  0.46163812  0.71105053     0.00700
Br2220     Br  0.58464871  0.49707456  0.73553070    -0.03700
Br2221     Br  0.52725313  0.43345469  0.66682569     0.00800
Br2222     Br  0.64042798  0.50623536  0.64356566    -0.03000
Br2223     Br  0.66912098  0.43483116  0.67034349    -0.03900
Br2224     Br  0.63640430  0.52233715  0.77720491     0.00100
C2225       C  0.51236179  0.28037516  0.70032888     0.01500
C2226       C  0.51833619  0.27326069  0.67128162     0.04400
C2227       C  0.52959360  0.29410826  0.65192297    -0.11700
C2228       C  0.53344179  0.32283835  0.66097286     0.23600
C2229       C  0.53095122  0.32842790  0.69111673    -0.12300
C2230       C  0.52177977  0.30701255  0.71056831     0.05100
C2231       C  0.54266069  0.34669570  0.64029636     0.27500
C2232       C  0.56924397  0.35941092  0.64387120    -0.13000
C2233       C  0.57529608  0.38655866  0.63158666     0.05600
C2234       C  0.55560692  0.40209265  0.61248930    -0.08900
C2235       C  0.53061574  0.38503456  0.60457479     0.06400
C2236       C  0.52472433  0.35807845  0.61846183    -0.13300
Br2237     Br  0.54066741  0.36517422  0.70691725    -0.05400
Br2238     Br  0.51376211  0.23423108  0.65905879     0.00200
Br2239     Br  0.61212893  0.40068956  0.64297782     0.00700
Br2240     Br  0.49183072  0.33553936  0.60715595    -0.03700
Br2241     Br  0.52533282  0.31283410  0.75174950     0.00800
Br2242     Br  0.54244638  0.28255397  0.61419579    -0.03000
Br2243     Br  0.59794478  0.33767655  0.66517082    -0.03900
Br2244     Br  0.50481023  0.39229717  0.57253660     0.00100
C2245       C  0.59494076  0.42682385  0.58313487     0.01500
C2246       C  0.59881933  0.39917952  0.57119816     0.04400
C2247       C  0.62476757  0.38421145  0.57481869    -0.11700
C2248       C  0.65047405  0.39851283  0.58249374     0.23600
C2249       C  0.64819892  0.42844419  0.58712171    -0.12300
C2250       C  0.62108550  0.44251428  0.58560197     0.05100
C2251       C  0.67852355  0.38161578  0.58275900     0.27500
C2252       C  0.68044358  0.35659596  0.60002344    -0.13000
C2253       C  0.69207724  0.33128458  0.58854901     0.05600
C2254       C  0.70795689  0.33261908  0.56284338    -0.08900
C2255       C  0.71560370  0.35988659  0.55262321     0.06400
C2256       C  0.69959018  0.38419142  0.56073067    -0.13300
Br2257     Br  0.68088966  0.45070234  0.59871028    -0.05400
Br2258     Br  0.56988151  0.38219660  0.54710747     0.00200
Br2259     Br  0.68420178  0.29524401  0.60727845     0.00700
Br2260     Br  0.71028909  0.42007548  0.54336177    -0.03700
Br2261     Br  0.62217649  0.48102200  0.57102740     0.00800
Br2262     Br  0.62237641  0.34326748  0.57401252    -0.03000
Br2263     Br  0.66763264  0.35677162  0.63917463    -0.03900
Br2264     Br  0.75105867  0.36399830  0.53219645     0.00100
C2265       C  0.40280812  0.62089017  0.64002774     0.01500
C2266       C  0.38557456  0.63883113  0.65865824     0.04400
C2267       C  0.39663476  0.65262719  0.68346455    -0.11700
C2268       C  0.42575998  0.65275283  0.68922919     0.23600
C2269       C  0.44265406  0.63245412  0.67458144    -0.12300
C2270       C  0.43145268  0.61627530  0.65066140     0.05100
C2271       C  0.43751940  0.67605257  0.70897311     0.27500
C2272       C  0.43585125  0.70509962  0.69983004    -0.13000
C2273       C  0.44476524  0.72755014  0.71821672     0.05600
C2274       C  0.45477955  0.72191309  0.74650167    -0.08900
C2275       C  0.45262088  0.69358648  0.75713942     0.06400
C2276       C  0.44456881  0.67074962  0.73843775    -0.13300
Br2277     Br  0.48043034  0.62482284  0.68936156    -0.05400
Br2278     Br  0.34700847  0.64981233  0.65115819     0.00200
Br2279     Br  0.44083520  0.76666224  0.70555497     0.00700
Br2280     Br  0.44039751  0.63269382  0.75394946    -0.03700
Br2281     Br  0.45611424  0.58698998  0.63556891     0.00800
Br2282     Br  0.37200884  0.67272861  0.71040638    -0.03000
Br2283     Br  0.41875809  0.71507406  0.66291685    -0.03900
Br2284     Br  0.45744181  0.68674329  0.79803998     0.00100
C2285       C  0.26845523  0.73590607  0.55908795     0.01500
C2286       C  0.28021121  0.71387394  0.54291421     0.04400
C2287       C  0.30718062  0.70378757  0.55079940    -0.11700
C2288       C  0.31345587  0.69970891  0.57977167     0.23600
C2289       C  0.29673098  0.71472671  0.59996667    -0.12300
C2290       C  0.27445482  0.73351772  0.58984239     0.05100
C2291       C  0.33522105  0.67712199  0.58656749     0.27500
C2292       C  0.32854707  0.64860547  0.57917729    -0.13000
C2293       C  0.35029915  0.62818250  0.57701358     0.05600
C2294       C  0.37565794  0.63227087  0.59270830    -0.08900
C2295       C  0.38453850  0.66132172  0.59508910     0.06400
C2296       C  0.36426851  0.68379994  0.59182554    -0.13300
Br2297     Br  0.30516321  0.71068818  0.64057435    -0.05400
Br2298     Br  0.25179153  0.68425036  0.54075745     0.00200
Br2299     Br  0.34686606  0.59659532  0.55062900     0.00700
Br2300     Br  0.37583288  0.72312132  0.59533648    -0.03700
Br2301     Br  0.24924807  0.74804021  0.61911313     0.00800
Br2302     Br  0.33940750  0.70796415  0.52624128    -0.03000
Br2303     Br  0.28966554  0.63575216  0.57739934    -0.03900
Br2304     Br  0.42435135  0.67027746  0.59846374     0.00100
C2305       C  0.36374486  0.58630805  0.62428758     0.01500
C2306       C  0.33342569  0.59162569  0.62152657     0.04400
C2307       C  0.31606280  0.59244859  0.64635964    -0.11700
C2308       C  0.32211606  0.57394182  0.66937864     0.23600
C2309       C  0.34938234  0.56067296  0.66911178    -0.12300
C2310       C  0.36987350  0.56661886  0.64713355     0.05100
C2311       C  0.29994493  0.56737536  0.69249247     0.27500
C2312       C  0.30557764  0.57404716  0.72187334    -0.13000
C2313       C  0.28811021  0.56296066  0.74415472     0.05600
C2314       C  0.26471000  0.54506518  0.73746886    -0.08900
C2315       C  0.25628000  0.54236767  0.70831943     0.06400
C2316       C  0.27321808  0.55397141  0.68590925    -0.13300
Br2317     Br  0.36007573  0.53616173  0.70007165    -0.05400
Br2318     Br  0.31192563  0.56519391  0.59801477     0.00200
Br2319     Br  0.29522449  0.57355142  0.78382959     0.00700
Br2320     Br  0.25765006  0.55202962  0.64700936    -0.03700
Br2321     Br  0.40423823  0.54436071  0.64702266     0.00800
Br2322     Br  0.28321630  0.61742219  0.64772329    -0.03000
Br2323     Br  0.33617416  0.60007295  0.73141346    -0.03900
Br2324     Br  0.22067749  0.52350009  0.69931779     0.00100
loop_ 
_geom_bond_atom_site_label_1 
_geom_bond_atom_site_label_2 
_geom_bond_distance 
_geom_bond_site_symmetry_2 
_ccdc_geom_bond_type 
C1           C10   1.634       .  S
C1         C2265   1.622       .  S
C1         C2294   1.577       .  S
C1         C2305   1.642       .  S
N2            N3   1.338       .  A
N2            N8   1.328       .  A
N2          Mn31   2.269       .  S
N3           C10   1.361       .  A
N4            N6   1.327       .  A
N4            N5   1.346       .  A
N4          Mn20   2.315       .  S
N5           C11   1.373       .  A
N6            N7   1.343       .  A
N6          Mn31   2.375       .  S
N7           C11   1.378       .  A
N8            N9   1.352       .  A
N8          Mn20   2.429       .  S
N9           C10   1.391       .  A
C11          C50   1.646       .  S
N12          N18   1.330       .  A
N12          N13   1.338       .  A
N12         Mn42   2.297       .  S
N13          C21   1.363       .  A
N14          N15   1.334       .  A
N14          N16   1.326       .  A
N14         Mn20   2.290       .  S
N15          C22   1.358       .  A
N16          N17   1.340       .  A
N16         Mn42   2.326       .  S
N17          C22   1.377       .  A
N18          N19   1.350       .  A
N18         Mn20   2.393       .  S
N19          C21   1.387       .  A
Mn20        Cl44   2.653       .  S
C21          C49   1.640       .  S
C22          C53   1.614       .  S
N23          N24   1.340       .  A
N23          N29   1.328       .  A
N23         Mn31   2.296       .  S
N24          C32   1.368       .  A
N25          N27   1.320       .  A
N25          N26   1.335       .  A
N25         Mn43   2.272       .  S
N26          C33   1.364       .  A
N27          N28   1.340       .  A
N27         Mn31   2.338       .  S
N28          C33   1.375       .  A
N29          N30   1.342       .  A
N29         Mn43   2.355       .  S
N30          C32   1.377       .  A
Mn31        Cl44   2.630       .  S
C32          C48   1.617       .  S
C33          C52   1.618       .  S
N34          N35   1.341       .  A
N34          N40   1.322       .  A
N34         Mn42   2.331       .  S
N35          C45   1.374       .  A
N36          N37   1.335       .  A
N36          N38   1.327       .  A
N36         Mn43   2.304       .  S
N37          C46   1.368       .  A
N38          N39   1.339       .  A
N38         Mn42   2.313       .  S
N39          C46   1.371       .  A
N40          N41   1.337       .  A
N40         Mn43   2.306       .  S
N41          C45   1.361       .  A
Mn42        Cl44   2.632       .  S
Mn43        Cl44   2.643       .  S
C45          C47   1.632       .  S
C46          C51   1.600       .  S
C47        C2205   1.617       .  S
C47        C2234   1.658       .  S
C47        C2245   1.622       .  S
C48        C2145   1.607       .  S
C48        C2165   1.617       .  S
C48        C2185   1.602       .  S
C49        C2094   1.589       .  S
C49        C2105   1.581       .  S
C49        C2134   1.626       .  S
C50        C2025   1.615       .  S
C50        C2045   1.606       .  S
C50        C2074   1.603       .  S
C51        C1965   1.618       .  S
C51        C1985   1.589       .  S
C51        C2005   1.604       .  S
C52        C1905   1.615       .  S
C52        C1925   1.621       .  S
C52        C1954   1.605       .  S
C53        C1854   1.627       .  S
C53        C1865   1.594       .  S
C53        C1894   1.604       .  S
C54          C55   1.423       .  A
C54          C59   1.393       .  A
C54        C1825   1.501       .  S
C55          C56   1.415       .  A
C55        C1785   1.483       .  S
C56          C57   1.411       .  A
C56          H61   1.083       .  S
C57          C58   1.422       .  A
C57        C1805   1.515       .  S
C58          C59   1.398       .  A
C58        C1765   1.469   1_554  S
C59          H60   1.085   1_554  S
C62          C63   1.424   1_565  A
C62          C67   1.408       .  A
C62        C1745   1.492       .  S
C63          C64   1.406       .  A
C63        C1714   1.506       .  S
C64          C65   1.413       .  A
C64          H69   1.083       .  S
C65          C66   1.430   1_545  A
C65        C1734   1.499       .  S
C66          C67   1.408       .  A
C66        C1694   1.509       .  S
C67          H68   1.084       .  S
C70          C71   1.414       .  A
C70          C75   1.398   1_655  A
C70        C1665   1.496   1_655  S
C71          C72   1.405       .  A
C71        C1634   1.476       .  S
C72          C73   1.405       .  A
C72          H77   1.084       .  S
C73          C74   1.425       .  A
C73        C1654   1.505       .  S
C74          C75   1.405   1_655  A
C74        C1605   1.479   1_655  S
C75          H76   1.084       .  S
C78          C79   1.424       .  A
C78          C83   1.396       .  A
C78        C2014   1.480       .  S
C79          C80   1.413       .  A
C79        C2194   1.501       .  S
C80          C81   1.410       .  A
C80          H85   1.083       .  S
C81          C82   1.418       .  A
C81        C1585   1.492       .  S
C82          C83   1.393       .  A
C82        C1574   1.484       .  S
C83          H84   1.085       .  S
C86          C87   1.450       .  A
C86          C91   1.429       .  A
C86        C2174   1.493       .  S
C87          C88   1.398       .  A
C87        C1945   1.541       .  S
C88          C89   1.388       .  A
C88          H93   1.070       .  S
C89          C90   1.372       .  A
C89        C1534   1.393       .  S
C90          C91   1.420       .  A
C90        C1554   1.561       .  S
C91          H92   1.079       .  S
C94          C95   1.422       .  A
C94          C99   1.400       .  A
C94        C2065   1.497       .  S
C95          C96   1.415       .  A
C95        C2154   1.495       .  S
C96          C97   1.415       .  A
C96         H101   1.083       .  S
C97          C98   1.423       .  A
C97        C1485   1.511       .  S
C98          C99   1.398       .  A
C98        C1505   1.482       .  S
C99         H100   1.085       .  S
C102        C103   1.426   1_556  A
C102        C107   1.412       .  A
C102       C1474   1.494       .  S
C103        C104   1.403       .  A
C103       C1445   1.500       .  S
C104        C105   1.405       .  A
C104        H109   1.084       .  S
C105        C106   1.423   1_554  A
C105       C1414   1.486       .  S
C106        C107   1.407       .  A
C106       C1425   1.506       .  S
C107        H108   1.084       .  S
C110        C111   1.421   1_556  A
C110        C115   1.416       .  A
C110       C1385   1.502       .  S
C111        C112   1.400       .  A
C111       C1365   1.493       .  S
C112        C113   1.403       .  A
C112        H117   1.084       .  S
C113        C114   1.424   1_554  A
C113       C1325   1.489       .  S
C114        C115   1.416       .  A
C114       C1354   1.507       .  S
C115        H116   1.083       .  S
C118        C119   1.423   1_655  A
C118        C123   1.412       .  A
C118       C1294   1.495       .  S
C119        C120   1.410       .  A
C119       C1305   1.504       .  S
C120        C121   1.411       .  A
C120        H125   1.083       .  S
C121        C122   1.419   1_455  A
C121       C1245   1.491       .  S
C122        C123   1.407       .  A
C122       C1265   1.504       .  S
C123        H124   1.084       .  S
C126        C127   1.422       .  A
C126        C131   1.416       .  A
C126       C2125   1.510       .  S
C127        C128   1.417       .  A
C127       C1974   1.516       .  S
C128        C129   1.423       .  A
C128        H133   1.083       .  S
C129        C130   1.440       .  A
C129       C1225   1.522       .  S
C130        C131   1.421       .  A
C130       C1205   1.530       .  S
C131        H132   1.083       .  S
C134        C135   1.419       .  A
C134        C139   1.414       .  A
C134       C2314   1.506       .  S
C135        C136   1.409       .  A
C135       C1934   1.500       .  S
C136        C137   1.414       .  A
C136        H141   1.083       .  S
C137        C138   1.428       .  A
C137       C1185   1.506       .  S
C138        C139   1.417       .  A
C138       C1165   1.512       .  S
C139        H140   1.083       .  S
C142        C163   1.606       .  S
C142       C1105   1.588       .  S
C142       C1125   1.583       .  S
C142       C1145   1.639       .  S
N143        N144   1.342       .  A
N143        N149   1.327       .  A
N143       Mn172   2.335   1_556  S
N144        C151   1.373       .  A
N145        N147   1.323       .  A
N145        N146   1.345       .  A
N145       Mn161   2.336   1_455  S
N146        C152   1.377       .  A
N147        N148   1.342       .  A
N147       Mn172   2.318       .  S
N148        C152   1.371       .  A
N149        N150   1.348       .  A
N149       Mn161   2.372   1_456  S
N150        C151   1.385       .  A
C151        C190   1.658       .  S
C152        C201   1.632       .  S
N153        N159   1.332       .  A
N153        N154   1.342       .  A
N153       Mn183   2.347       .  S
N154        C162   1.375       .  A
N155        N156   1.339       .  A
N155        N157   1.323       .  A
N155       Mn161   2.333   1_556  S
N156        C163   1.377       .  A
N157        N158   1.328       .  A
N157       Mn183   2.248   1_556  S
N158        C163   1.350       .  A
N159        N160   1.340       .  A
N159       Mn161   2.326       .  S
N160        C162   1.369       .  A
Mn161      Cl185   2.643       .  S
C162        C192   1.615       .  S
N164        N165   1.339       .  A
N164        N170   1.330       .  A
N164       Mn172   2.347       .  S
N165        C173   1.377       .  A
N166        N168   1.327       .  A
N166        N167   1.343       .  A
N166       Mn184   2.347   1_456  S
N167        C174   1.377       .  A
N168        N169   1.336       .  A
N168       Mn172   2.269   1_556  S
N169        C174   1.360       .  A
N170        N171   1.334       .  A
N170       Mn184   2.283   1_455  S
N171        C173   1.361       .  A
Mn172      Cl185   2.629   1_455  S
C173        C202   1.600       .  S
C174        C189   1.604       .  S
N175        N176   1.343       .  A
N175        N181   1.328       .  A
N175       Mn183   2.357   1_556  S
N176        C186   1.373       .  A
N177        N178   1.336       .  A
N177        N179   1.321       .  A
N177       Mn184   2.293       .  S
N178        C187   1.367       .  A
N179        N180   1.341       .  A
N179       Mn183   2.292       .  S
N180        C187   1.371       .  A
N181        N182   1.348       .  A
N181       Mn184   2.362   1_556  S
N182        C186   1.385       .  A
Mn183      Cl185   2.628       .  S
Mn184      Cl185   2.643       .  S
C186        C191   1.661       .  S
C187        C188   1.602       .  S
C188       C1234   1.607       .  S
C188       C1374   1.600       .  S
C188       C1645   1.597       .  S
C189       C1194   1.621       .  S
C189       C1314   1.604       .  S
C189       C1774   1.596       .  S
C190       C1094   1.591       .  S
C190       C1174   1.637       .  S
C190       C1434   1.637       .  S
C191       C1065   1.608       .  S
C191       C1285   1.582       .  S
C191       C1394   1.642       .  S
C192       C1034   1.607       .  S
C192       C1054   1.609       .  S
C192       C1214   1.602       .  S
C193        C194   1.426       .  A
C193        C198   1.418       .  A
C193       C2214   1.503       .  S
C194        C195   1.399       .  A
C194       C1874   1.493       .  S
C195        C196   1.397       .  A
C195        H200   1.084       .  S
C196        C197   1.412       .  A
C196       C1154   1.475       .  S
C197        C198   1.410       .  A
C197       C1074   1.504       .  S
C198        H199   1.083       .  S
C201       C1014   1.607       .  S
C201       C1405   1.615       .  S
C201       C1514   1.608       .  S
C202       C1494   1.575       .  S
C202       C1614   1.610       .  S
C202       C1814   1.624       .  S
C203        C204   1.423       .  A
C203        C208   1.410       .  A
C203        C974   1.497       .  S
C204        C205   1.403   1_545  A
C204        C994   1.494   1_545  S
C205        C206   1.402   1_565  A
C205        H210   1.084       .  S
C206        C207   1.420       .  A
C206        C925   1.490   1_545  S
C207        C208   1.408       .  A
C207        C945   1.495       .  S
C208        H209   1.084       .  S
C211        C212   1.437       .  A
C211        C216   1.409       .  A
C211       C2034   1.509       .  S
C212        C213   1.423       .  A
C212       C2114   1.536       .  S
C213        C214   1.418       .  A
C213        H218   1.072       .  S
C214        C215   1.448       .  A
C214        C905   1.535       .  S
C215        C216   1.409       .  A
C215        C885   1.522       .  S
C216        H217   1.048       .  S
C219        C220   1.418       .  A
C219        C224   1.405       .  A
C219       C2225   1.514       .  S
C220        C221   1.413       .  A
C220       C1914   1.485       .  S
C221        C222   1.412       .  A
C221        H226   1.082       .  S
C222        C223   1.434       .  A
C222        C845   1.530       .  S
C223        C224   1.416       .  A
C223        C865   1.489       .  S
C224        H225   1.084       .  S
C227        C248   1.628       .  S
C227        C834   1.635       .  S
C227        C874   1.620       .  S
C227       C1345   1.622       .  S
N228        N229   1.338       .  A
N228        N234   1.324       .  A
N228       Mn257   2.301   1_556  S
N229        C236   1.369       .  A
N230        N232   1.327       .  A
N230        N231   1.338       .  A
N230       Mn246   2.306   1_565  S
N231        C237   1.369       .  A
N232        N233   1.343       .  A
N232       Mn257   2.339       .  S
N233        C237   1.376       .  A
N234        N235   1.341       .  A
N234       Mn246   2.331   1_566  S
N235        C236   1.375       .  A
C236        C276   1.623       .  S
C237        C273   1.613       .  S
N238        N244   1.324       .  A
N238        N239   1.333       .  A
N238       Mn268   2.252       .  S
N239        C247   1.359       .  A
N240        N241   1.337       .  A
N240        N242   1.322       .  A
N240       Mn246   2.321   1_556  S
N241        C248   1.364       .  A
N242        N243   1.340       .  A
N242       Mn268   2.315   1_556  S
N243        C248   1.372       .  A
N244        N245   1.336       .  A
N244       Mn246   2.327       .  S
N245        C247   1.377       .  A
Mn246      Cl270   2.614       .  S
C247        C287   1.607       .  S
N249        N250   1.336       .  A
N249        N255   1.320       .  A
N249       Mn257   2.309       .  S
N250        C258   1.371       .  A
N251        N253   1.323       .  A
N251        N252   1.336       .  A
N251       Mn269   2.286   1_566  S
N252        C259   1.368       .  A
N253        N254   1.335       .  A
N253       Mn257   2.317   1_556  S
N254        C259   1.371       .  A
N255        N256   1.338       .  A
N255       Mn269   2.312   1_565  S
N256        C258   1.368       .  A
Mn257      Cl270   2.619   1_565  S
C258        C277   1.638       .  S
C259        C274   1.597       .  S
N260        N261   1.335       .  A
N260        N266   1.322       .  A
N260       Mn268   2.251   1_556  S
N261        C271   1.362       .  A
N262        N263   1.334       .  A
N262        N264   1.323       .  A
N262       Mn269   2.280       .  S
N263        C272   1.367       .  A
N264        N265   1.341       .  A
N264       Mn268   2.331       .  S
N265        C272   1.374       .  A
N266        N267   1.333       .  A
N266       Mn269   2.309   1_556  S
N267        C271   1.371       .  A
Mn268      Cl270   2.621       .  S
Mn269      Cl270   2.613       .  S
C271        C275   1.586       .  S
C272        C286   1.603       .  S
C273        C785   1.586       .  S
C273        C805   1.606       .  S
C273        C914   1.620       .  S
C274        C765   1.619       .  S
C274        C985   1.614       .  S
C274       C1465   1.587       .  S
C275        C854   1.611       .  S
C275        C965   1.590       .  S
C275       C1834   1.603       .  S
C276        C714   1.608       .  S
C276        C725   1.616       .  S
C276        C745   1.619       .  S
C277        C894   1.595       .  S
C277       C1454   1.617       .  S
C277       C1685   1.634       .  S
C278        C279   1.421       .  A
C278        C283   1.405       .  A
C278       C1845   1.485       .  S
C279        C280   1.419       .  A
C279       C2274   1.517       .  S
C280        C281   1.422       .  A
C280        H285   1.083       .  S
C281        C282   1.423       .  A
C281        C774   1.505       .  S
C282        C283   1.402       .  A
C282        C754   1.499       .  S
C283        H284   1.084       .  S
C286       C1594   1.619       .  S
C286       C1725   1.607       .  S
C286       C1794   1.595       .  S
C287        C685   1.555       .  S
C287       C1334   1.596       .  S
C287       C1565   1.608       .  S
C288        C289   1.429       .  A
C288        C293   1.414       .  A
C288       C1005   1.517       .  S
C289        C290   1.408       .  A
C289       C1045   1.501       .  S
C290        C291   1.409       .  A
C290        H295   1.084       .  S
C291        C292   1.434       .  A
C291        C665   1.514       .  S
C292        C293   1.417       .  A
C292        C645   1.513   1_655  S
C293        H294   1.082   1_655  S
C296        C297   1.428       .  A
C296        C301   1.415       .  A
C296        C694   1.500       .  S
C297        C298   1.396   1_545  A
C297        C814   1.487   1_545  S
C298        C299   1.396   1_565  A
C298        H303   1.085       .  S
C299        C300   1.414       .  A
C299        C614   1.476   1_545  S
C300        C301   1.406       .  A
C300        C634   1.497       .  S
C301        H302   1.084       .  S
C304        C305   1.424       .  A
C304        C309   1.416       .  A
C304       C1994   1.493       .  S
C305        C306   1.399       .  A
C305       C2254   1.502       .  S
C306        C307   1.400       .  A
C306        H311   1.084       .  S
C307        C308   1.418       .  A
C307        C585   1.476       .  S
C308        C309   1.411       .  A
C308        C565   1.507       .  S
C309        H310   1.083       .  S
C312        C313   1.455       .  A
C312        C317   1.411       .  A
C312       C2054   1.509       .  S
C313        C314   1.416       .  A
C313       C2285   1.545       .  S
C314        C315   1.405       .  A
C314        H319   1.073       .  S
C315        C316   1.415       .  A
C315        C545   1.495       .  S
C316        C317   1.402       .  A
C316        C525   1.500       .  S
C317        H318   1.084       .  S
C320        C341   1.646       .  S
C320        C574   1.613       .  S
C320        C625   1.588       .  S
C320       C1625   1.615       .  S
N321        N322   1.339       .  A
N321        N327   1.326       .  A
N321       Mn350   2.323       .  S
N322        C329   1.372       .  A
N323        N325   1.323       .  A
N323        N324   1.340       .  A
N323       Mn339   2.317   1_565  S
N324        C330   1.373       .  A
N325        N326   1.331       .  A
N325       Mn350   2.261   1_565  S
N326        C330   1.360       .  A
N327        N328   1.339       .  A
N327       Mn339   2.316       .  S
N328        C329   1.370       .  A
C329        C369   1.617       .  S
C330        C370   1.595       .  S
N331        N337   1.326       .  A
N331        N332   1.334       .  A
N331       Mn361   2.295   1_565  S
N332        C340   1.366       .  A
N333        N334   1.342       .  A
N333        N335   1.328       .  A
N333       Mn339   2.328       .  S
N334        C341   1.372       .  A
N335        N336   1.351       .  A
N335       Mn361   2.378       .  S
N336        C341   1.383       .  A
N337        N338   1.337       .  A
N337       Mn339   2.295   1_565  S
N338        C340   1.368       .  A
Mn339      Cl363   2.637       .  S
C340        C366   1.586       .  S
N342        N343   1.345       .  A
N342        N348   1.329       .  A
N342       Mn350   2.371   1_465  S
N343        C351   1.380       .  A
N344        N346   1.322       .  A
N344        N345   1.341       .  A
N344       Mn362   2.348       .  S
N345        C352   1.378       .  A
N346        N347   1.336       .  A
N346       Mn350   2.266   1_455  S
N347        C352   1.362       .  A
N348        N349   1.342       .  A
N348       Mn362   2.313   1_565  S
N349        C351   1.369       .  A
Mn350      Cl363   2.624       .  S
C351        C368   1.624       .  S
C352        C380   1.610       .  S
N353        N354   1.335       .  A
N353        N359   1.325       .  A
N353       Mn361   2.308   1_455  S
N354        C364   1.367       .  A
N355        N356   1.341       .  A
N355        N357   1.325       .  A
N355       Mn362   2.336   1_565  S
N356        C365   1.371       .  A
N357        N358   1.345       .  A
N357       Mn361   2.337   1_465  S
N358        C365   1.378       .  A
N359        N360   1.334       .  A
N359       Mn362   2.297       .  S
N360        C364   1.367       .  A
Mn361      Cl363   2.626       .  S
Mn362      Cl363   2.643   1_455  S
C364        C379   1.608       .  S
C365        C367   1.632       .  S
C366        C505   1.599       .  S
C366        C605   1.586       .  S
C366        C674   1.599       .  S
C367        C534   1.616       .  S
C367        C654   1.613       .  S
C367       C1754   1.612       .  S
C368        C494   1.595       .  S
C368        C554   1.632       .  S
C368        C934   1.600       .  S
C369        C474   1.601       .  S
C369        C594   1.618       .  S
C369       C1274   1.612       .  S
C370        C405   1.587       .  S
C370        C425   1.605       .  S
C370        C445   1.581       .  S
C371        C372   1.419       .  A
C371        C376   1.400       .  A
C371       C2085   1.494       .  S
C372        C373   1.404       .  A
C372       C1885   1.482       .  S
C373        C374   1.405       .  A
C373        H378   1.084       .  S
C374        C375   1.423       .  A
C374        C454   1.497       .  S
C375        C376   1.401       .  A
C375        C514   1.480       .  S
C376        H377   1.084       .  S
C379       C1545   1.608       .  S
C379       C1674   1.608       .  S
C379       C1705   1.591       .  S
C380        C954   1.604       .  S
C380       C1254   1.629       .  S
C380       C1525   1.603       .  S
C381        C382   1.440       .  A
C381        C386   1.434       .  A
C381       C1085   1.505       .  S
C382        C383   1.390       .  A
C382       C1134   1.506       .  S
C383        C384   1.382       .  A
C383        H388   1.083       .  S
C384        C385   1.375       .  A
C384        C414   1.395       .  S
C385        C386   1.421       .  A
C385        C485   1.548       .  S
C386        H387   1.082   1_655  S
C389        C390   1.418       .  A
C389        C394   1.395   1_545  A
C389        C705   1.507   1_545  S
C390        C391   1.413       .  A
C390        C825   1.480       .  S
C391        C392   1.413       .  A
C391        H396   1.080       .  S
C392        C393   1.439       .  A
C392        C465   1.537       .  S
C393        C394   1.403   1_545  A
C393        C434   1.478   1_545  S
C394        H395   1.085       .  S
C397        C398   1.426       .  A
C397        C402   1.407       .  A
C397       C1025   1.494       .  S
C398        C399   1.407       .  A
C398       C1114   1.511   1_554  S
C399        C400   1.409       .  A
C399        H404   1.083   1_554  S
C400        C401   1.452       .  A
C400        C734   1.514   1_554  S
C401        C402   1.407       .  A
C401        C794   1.522       .  S
C402        H403   1.079       .  S
C405        C406   1.418       .  A
C405        C410   1.379       .  A
C406        C407   1.413       .  A
C406       Br418   1.915       .  S
C407        C408   1.412       .  A
C407       Br422   1.915       .  S
C408        C409   1.424       .  A
C408        C411   1.514       .  S
C409        C410   1.397       .  A
C409       Br417   1.888       .  S
C410       Br421   1.907       .  S
C411        C412   1.666       .  A
C411        C416   1.629       .  A
C412        C413   1.609       .  A
C412       Br423   1.947       .  S
C413        C414   1.622       .  A
C413       Br419   1.923       .  S
C414        C415   1.597       .  A
C415        C416   1.592       .  A
C415       Br424   1.921       .  S
C416       Br420   1.915       .  S
C425        C426   1.421       .  A
C425        C430   1.465       .  A
C426        C427   1.416       .  A
C426       Br438   1.919   1_565  S
C427        C428   1.409       .  A
C427       Br442   1.919   1_565  S
C428        C429   1.387       .  A
C428        C431   1.502       .  S
C429        C430   1.409       .  A
C429       Br437   1.941       .  S
C430       Br441   1.947       .  S
C431        C432   1.422       .  A
C431        C436   1.409       .  A
C432        C433   1.399       .  A
C432       Br443   1.902       .  S
C433        C434   1.392       .  A
C433       Br439   1.939       .  S
C434        C435   1.414       .  A
C435        C436   1.413       .  A
C435       Br444   1.925       .  S
C436       Br440   1.927       .  S
C445        C446   1.418       .  A
C445        C450   1.422       .  A
C446        C447   1.390       .  A
C446       Br458   1.928       .  S
C447        C448   1.407       .  A
C447       Br462   1.940       .  S
C448        C449   1.426       .  A
C448        C451   1.505       .  S
C449        C450   1.427       .  A
C449       Br457   1.928       .  S
C450       Br461   1.925       .  S
C451        C452   1.417       .  A
C451        C456   1.415       .  A
C452        C453   1.416       .  A
C452       Br463   1.913       .  S
C453        C454   1.412       .  A
C453       Br459   1.927       .  S
C454        C455   1.399       .  A
C455        C456   1.397       .  A
C455       Br464   1.918       .  S
C456       Br460   1.933       .  S
C465        C466   1.403       .  A
C465        C470   1.439       .  A
C466        C467   1.394       .  A
C466       Br478   1.913       .  S
C467        C468   1.380       .  A
C467       Br482   1.908       .  S
C468        C469   1.418       .  A
C468        C471   1.503       .  S
C469        C470   1.438       .  A
C469       Br477   1.919       .  S
C470       Br481   1.925       .  S
C471        C472   1.412       .  A
C471        C476   1.414       .  A
C472        C473   1.416       .  A
C472       Br483   1.934       .  S
C473        C474   1.436       .  A
C473       Br479   1.927       .  S
C474        C475   1.422       .  A
C475        C476   1.414       .  A
C475       Br484   1.912       .  S
C476       Br480   1.928       .  S
C485        C486   1.423   1_655  A
C485        C490   1.504       .  A
C486        C487   1.405       .  A
C486       Br498   1.926       .  S
C487        C488   1.394       .  A
C487       Br502   1.935       .  S
C488        C489   1.434   1_455  A
C488        C491   1.531       .  S
C489        C490   1.488       .  A
C489       Br497   1.955       .  S
C490       Br501   3.713       .  S
C491        C492   1.404       .  A
C491        C496   1.426       .  A
C492        C493   1.403       .  A
C492       Br503   1.936       .  S
C493        C494   1.431       .  A
C493       Br499   1.931       .  S
C494        C495   1.408       .  A
C495        C496   1.424       .  A
C495       Br504   1.932       .  S
C496       Br500   1.931       .  S
C505        C506   1.395       .  A
C505        C510   1.421       .  A
C506        C507   1.423       .  A
C506       Br518   1.906       .  S
C507        C508   1.436       .  A
C507       Br522   1.915       .  S
C508        C509   1.408       .  A
C508        C511   1.519       .  S
C509        C510   1.397       .  A
C509       Br517   1.928       .  S
C510       Br521   1.913       .  S
C511        C512   1.418       .  A
C511        C516   1.436       .  A
C512        C513   1.405       .  A
C512       Br523   1.911       .  S
C513        C514   1.397       .  A
C513       Br519   1.925       .  S
C514        C515   1.401       .  A
C515        C516   1.406       .  A
C515       Br524   1.930       .  S
C516       Br520   1.943       .  S
C525        C526   1.411       .  A
C525        C530   1.410       .  A
C526        C527   1.415       .  A
C526       Br538   1.925       .  S
C527        C528   1.412       .  A
C527       Br542   1.929       .  S
C528        C529   1.412       .  A
C528        C531   1.501       .  S
C529        C530   1.409       .  A
C529       Br537   1.923       .  S
C530       Br541   1.930       .  S
C531        C532   1.387       .  A
C531        C536   1.398       .  A
C532        C533   1.412       .  A
C532       Br543   1.944       .  S
C533        C534   1.469       .  A
C533       Br539   1.934       .  S
C534        C535   1.424       .  A
C535        C536   1.408       .  A
C535       Br544   1.918       .  S
C536       Br540   1.873       .  S
C545        C546   1.406       .  A
C545        C550   1.399       .  A
C546        C547   1.413       .  A
C546       Br558   1.927       .  S
C547        C548   1.421       .  A
C547       Br562   1.926       .  S
C548        C549   1.432       .  A
C548        C551   1.526       .  S
C549        C550   1.409       .  A
C549       Br557   1.929       .  S
C550       Br561   1.927       .  S
C551        C552   1.421       .  A
C551        C556   1.408       .  A
C552        C553   1.427       .  A
C552       Br563   1.941       .  S
C553        C554   1.442       .  A
C553       Br559   1.919       .  S
C554        C555   1.438       .  A
C555        C556   1.420       .  A
C555       Br564   1.925       .  S
C556       Br560   1.927       .  S
C565        C566   1.411       .  A
C565        C570   1.409       .  A
C566        C567   1.419       .  A
C566       Br578   1.924       .  S
C567        C568   1.416       .  A
C567       Br582   1.928       .  S
C568        C569   1.418       .  A
C568        C571   1.514       .  S
C569        C570   1.414       .  A
C569       Br577   1.926       .  S
C570       Br581   1.930       .  S
C571        C572   1.422       .  A
C571        C576   1.393       .  A
C572        C573   1.435       .  A
C572       Br583   1.870       .  S
C573        C574   1.430       .  A
C573       Br579   1.936       .  S
C574        C575   1.427       .  A
C575        C576   1.392       .  A
C575       Br584   1.925       .  S
C576       Br580   1.932       .  S
C585        C586   1.394       .  A
C585        C590   1.406       .  A
C586        C587   1.400       .  A
C586       Br598   1.935       .  S
C587        C588   1.439       .  A
C587       Br602   1.939       .  S
C588        C589   1.415       .  A
C588        C591   1.510       .  S
C589        C590   1.409       .  A
C589       Br597   1.931       .  S
C590       Br601   1.925       .  S
C591        C592   1.431       .  A
C591        C596   1.394       .  A
C592        C593   1.430       .  A
C592       Br603   1.927       .  S
C593        C594   1.421       .  A
C593       Br599   1.931       .  S
C594        C595   1.432       .  A
C595        C596   1.393       .  A
C595       Br604   1.916       .  S
C596       Br600   1.928       .  S
C605        C606   1.423       .  A
C605        C610   1.459       .  A
C606        C607   1.404       .  A
C606       Br618   1.929   1_565  S
C607        C608   1.403       .  A
C607       Br622   1.898   1_565  S
C608        C609   1.389       .  A
C608        C611   1.485       .  S
C609        C610   1.400       .  A
C609       Br617   1.946       .  S
C610       Br621   1.939       .  S
C611        C612   1.414       .  A
C611        C616   1.416       .  A
C612        C613   1.405       .  A
C612       Br623   1.926       .  S
C613        C614   1.406       .  A
C613       Br619   1.929       .  S
C614        C615   1.403       .  A
C615        C616   1.402       .  A
C615       Br624   1.929   1_565  S
C616       Br620   1.937       .  S
C625        C626   1.424       .  A
C625        C630   1.425       .  A
C626        C627   1.420       .  A
C626       Br638   1.923       .  S
C627        C628   1.428       .  A
C627       Br642   1.928       .  S
C628        C629   1.429       .  A
C628        C631   1.541       .  S
C629        C630   1.423       .  A
C629       Br637   1.916       .  S
C630       Br641   1.936       .  S
C631        C632   1.438       .  A
C631        C636   1.438       .  A
C632        C633   1.413       .  A
C632       Br643   1.931       .  S
C633        C634   1.397       .  A
C633       Br639   1.929       .  S
C634        C635   1.398       .  A
C635        C636   1.415       .  A
C635       Br644   1.932       .  S
C636       Br640   1.929       .  S
C645        C646   1.419       .  A
C645        C650   1.402   1_455  A
C646        C647   1.423       .  A
C646       Br658   1.929       .  S
C647        C648   1.422       .  A
C647       Br662   1.925       .  S
C648        C649   1.420       .  A
C648        C651   1.533       .  S
C649        C650   1.406   1_455  A
C649       Br657   1.901   1_455  S
C650       Br661   1.931       .  S
C651        C652   1.414       .  A
C651        C656   1.429       .  A
C652        C653   1.411       .  A
C652       Br663   1.939       .  S
C653        C654   1.427       .  A
C653       Br659   1.922       .  S
C654        C655   1.427       .  A
C655        C656   1.432       .  A
C655       Br664   1.913       .  S
C656       Br660   1.934       .  S
C665        C666   1.406       .  A
C665        C670   1.418       .  A
C666        C667   1.411       .  A
C666       Br678   1.931       .  S
C667        C668   1.421       .  A
C667       Br682   1.913       .  S
C668        C669   1.419       .  A
C668        C671   1.528       .  S
C669        C670   1.420       .  A
C669       Br677   1.921       .  S
C670       Br681   1.931       .  S
C671        C672   1.428       .  A
C671        C676   1.417       .  A
C672        C673   1.418       .  A
C672       Br683   1.927       .  S
C673        C674   1.413       .  A
C673       Br679   1.914       .  S
C674        C675   1.429       .  A
C675        C676   1.412       .  A
C675       Br684   1.933       .  S
C676       Br680   1.936       .  S
C685        C686   1.425       .  A
C685        C690   1.411       .  A
C686        C687   1.411       .  A
C686       Br698   1.946       .  S
C687        C688   1.429       .  A
C687       Br702   1.937       .  S
C688        C689   1.426       .  A
C688        C691   1.509       .  S
C689        C690   1.402       .  A
C689       Br697   1.941       .  S
C690       Br701   1.929       .  S
C691        C692   1.423       .  A
C691        C696   1.415       .  A
C692        C693   1.416       .  A
C692       Br703   1.929       .  S
C693        C694   1.414       .  A
C693       Br699   1.928       .  S
C694        C695   1.402       .  A
C695        C696   1.399       .  A
C695       Br704   1.918       .  S
C696       Br700   1.928       .  S
C705        C706   1.411       .  A
C705        C710   1.410       .  A
C706        C707   1.407       .  A
C706       Br718   1.924       .  S
C707        C708   1.410       .  A
C707       Br722   1.911       .  S
C708        C709   1.428       .  A
C708        C711   1.522       .  S
C709        C710   1.418       .  A
C709       Br717   1.934       .  S
C710       Br721   1.926   1_565  S
C711        C712   1.423       .  A
C711        C716   1.403       .  A
C712        C713   1.419       .  A
C712       Br723   1.905   1_565  S
C713        C714   1.412       .  A
C713       Br719   1.928   1_565  S
C714        C715   1.436       .  A
C715        C716   1.412       .  A
C715       Br724   1.914       .  S
C716       Br720   1.929       .  S
C725        C726   1.462       .  A
C725        C730   1.436       .  A
C726        C727   1.415       .  A
C726       Br738   1.935       .  S
C727        C728   1.395       .  A
C727       Br742   1.952       .  S
C728        C729   1.416       .  A
C728        C731   1.520       .  S
C729        C730   1.423       .  A
C729       Br737   1.909   1_556  S
C730       Br741   1.935   1_556  S
C731        C732   1.418       .  A
C731        C736   1.421       .  A
C732        C733   1.425       .  A
C732       Br743   1.925       .  S
C733        C734   1.413       .  A
C733       Br739   1.926       .  S
C734        C735   1.409       .  A
C735        C736   1.412       .  A
C735       Br744   1.930       .  S
C736       Br740   1.924       .  S
C745        C746   1.437       .  A
C745        C750   1.431       .  A
C746        C747   1.421       .  A
C746       Br758   1.931       .  S
C747        C748   1.420       .  A
C747       Br762   1.928       .  S
C748        C749   1.411       .  A
C748        C751   1.533       .  S
C749        C750   1.422       .  A
C749       Br757   1.918       .  S
C750       Br761   1.912       .  S
C751        C752   1.422       .  A
C751        C756   1.436       .  A
C752        C753   1.412       .  A
C752       Br763   1.921       .  S
C753        C754   1.403       .  A
C753       Br759   1.929       .  S
C754        C755   1.404       .  A
C755        C756   1.416       .  A
C755       Br764   1.929       .  S
C756       Br760   1.934       .  S
C765        C766   1.458       .  A
C765        C770   1.430       .  A
C766        C767   1.414       .  A
C766       Br778   1.920       .  S
C767        C768   1.390       .  A
C767       Br782   1.940       .  S
C768        C769   1.406       .  A
C768        C771   1.516       .  S
C769        C770   1.419       .  A
C769       Br777   1.883       .  S
C770       Br781   1.933       .  S
C771        C772   1.415       .  A
C771        C776   1.416       .  A
C772        C773   1.418       .  A
C772       Br783   1.929       .  S
C773        C774   1.411       .  A
C773       Br779   1.924       .  S
C774        C775   1.408       .  A
C775        C776   1.414       .  A
C775       Br784   1.929       .  S
C776       Br780   1.915       .  S
C785        C786   1.425       .  A
C785        C790   1.401       .  A
C786        C787   1.418       .  A
C786       Br798   1.920       .  S
C787        C788   1.416       .  A
C787       Br802   1.926       .  S
C788        C789   1.430       .  A
C788        C791   1.514       .  S
C789        C790   1.413       .  A
C789       Br797   1.914       .  S
C790       Br801   1.921       .  S
C791        C792   1.445       .  A
C791        C796   1.379       .  A
C792        C793   1.460       .  A
C792       Br803   1.917       .  S
C793        C794   1.450       .  A
C793       Br799   1.921       .  S
C794        C795   1.376       .  A
C795        C796   1.395       .  A
C795       Br804   1.927       .  S
C796       Br800   1.946       .  S
C805        C806   1.417       .  A
C805        C810   1.420       .  A
C806        C807   1.422       .  A
C806       Br818   1.914   1_565  S
C807        C808   1.427       .  A
C807       Br822   1.917   1_565  S
C808        C809   1.416       .  A
C808        C811   1.519       .  S
C809        C810   1.406       .  A
C809       Br817   1.926       .  S
C810       Br821   1.926       .  S
C811        C812   1.429       .  A
C811        C816   1.422       .  A
C812        C813   1.410       .  A
C812       Br823   1.929       .  S
C813        C814   1.401       .  A
C813       Br819   1.931       .  S
C814        C815   1.400       .  A
C815        C816   1.408       .  A
C815       Br824   1.928       .  S
C816       Br820   1.924       .  S
C825        C826   1.396       .  A
C825        C830   1.408       .  A
C826        C827   1.398       .  A
C826       Br838   1.937       .  S
C827        C828   1.417       .  A
C827       Br842   1.901       .  S
C828        C829   1.416       .  A
C828        C831   1.505       .  S
C829        C830   1.415       .  A
C829       Br837   1.927       .  S
C830       Br841   1.925       .  S
C831        C832   1.387       .  A
C831        C836   1.402       .  A
C832        C833   1.411       .  A
C832       Br843   1.945       .  S
C833        C834   1.463       .  A
C833       Br839   1.931       .  S
C834        C835   1.452       .  A
C835        C836   1.426       .  A
C835       Br844   1.939       .  S
C836       Br840   1.913       .  S
C845        C846   1.406       .  A
C845        C850   1.426       .  A
C846        C847   1.407       .  A
C846       Br858   1.919       .  S
C847        C848   1.419       .  A
C847       Br862   1.922       .  S
C848        C849   1.417       .  A
C848        C851   1.526       .  S
C849        C850   1.425       .  A
C849       Br857   1.931       .  S
C850       Br861   1.921       .  S
C851        C852   1.413       .  A
C851        C856   1.421       .  A
C852        C853   1.409       .  A
C852       Br863   1.929       .  S
C853        C854   1.422       .  A
C853       Br859   1.916       .  S
C854        C855   1.436       .  A
C855        C856   1.423       .  A
C855       Br864   1.924       .  S
C856       Br860   1.944       .  S
C865        C866   1.406       .  A
C865        C870   1.401       .  A
C866        C867   1.414       .  A
C866       Br878   1.932       .  S
C867        C868   1.430       .  A
C867       Br882   1.935       .  S
C868        C869   1.414       .  A
C868        C871   1.522       .  S
C869        C870   1.404       .  A
C869       Br877   1.910       .  S
C870       Br881   1.927       .  S
C871        C872   1.416       .  A
C871        C876   1.400       .  A
C872        C873   1.418       .  A
C872       Br883   1.893       .  S
C873        C874   1.406       .  A
C873       Br879   1.914       .  S
C874        C875   1.429       .  A
C875        C876   1.419       .  A
C875       Br884   1.903       .  S
C876       Br880   1.918       .  S
C885        C886   1.373       .  A
C885        C890   1.451       .  A
C886        C887   1.394       .  A
C886       Br898   1.931       .  S
C887        C888   1.374       .  A
C887       Br902   1.952       .  S
C888        C889   1.450       .  A
C888        C891   1.520       .  S
C889        C890   1.461       .  A
C889       Br897   1.915       .  S
C890       Br901   1.924       .  S
C891        C892   1.413       .  A
C891        C896   1.431       .  A
C892        C893   1.424       .  A
C892       Br903   1.932       .  S
C893        C894   1.433       .  A
C893       Br899   1.906       .  S
C894        C895   1.409       .  A
C895        C896   1.415       .  A
C895       Br904   1.933       .  S
C896       Br900   1.915       .  S
C905        C906   1.417       .  A
C905        C910   1.413       .  A
C906        C907   1.433       .  A
C906       Br918   1.925       .  S
C907        C908   1.419       .  A
C907       Br922   1.928       .  S
C908        C909   1.425       .  A
C908        C911   1.535       .  S
C909        C910   1.421       .  A
C909       Br917   1.925       .  S
C910       Br921   1.932       .  S
C911        C912   1.425       .  A
C911        C916   1.393       .  A
C912        C913   1.431       .  A
C912       Br923   1.900       .  S
C913        C914   1.431       .  A
C913       Br919   1.940       .  S
C914        C915   1.457       .  A
C915        C916   1.416       .  A
C915       Br924   1.911       .  S
C916       Br920   1.953       .  S
C925        C926   1.411       .  A
C925        C930   1.409   1_565  A
C926        C927   1.407       .  A
C926       Br938   1.927       .  S
C927        C928   1.410       .  A
C927       Br942   1.929       .  S
C928        C929   1.411       .  A
C928        C931   1.495       .  S
C929        C930   1.410   1_565  A
C929       Br937   1.927       .  S
C930       Br941   1.927       .  S
C931        C932   1.386       .  A
C931        C936   1.392       .  A
C932        C933   1.409       .  A
C932       Br943   1.940       .  S
C933        C934   1.465       .  A
C933       Br939   1.935       .  S
C934        C935   1.427       .  A
C935        C936   1.403       .  A
C935       Br944   1.934   1_565  S
C936       Br940   1.861   1_565  S
C945        C946   1.402       .  A
C945        C950   1.400       .  A
C946        C947   1.407       .  A
C946       Br958   1.924       .  S
C947        C948   1.417       .  A
C947       Br962   1.907       .  S
C948        C949   1.436       .  A
C948        C951   1.531       .  S
C949        C950   1.412       .  A
C949       Br957   1.933       .  S
C950       Br961   1.925       .  S
C951        C952   1.416       .  A
C951        C956   1.436       .  A
C952        C953   1.410       .  A
C952       Br963   1.916       .  S
C953        C954   1.414       .  A
C953       Br959   1.922       .  S
C954        C955   1.428       .  A
C955        C956   1.428       .  A
C955       Br964   1.936       .  S
C956       Br960   1.931       .  S
C965        C966   1.411       .  A
C965        C970   1.424       .  A
C966        C967   1.411       .  A
C966       Br978   1.935       .  S
C967        C968   1.412       .  A
C967       Br982   1.885       .  S
C968        C969   1.398       .  A
C968        C971   1.499       .  S
C969        C970   1.403       .  A
C969       Br977   1.925       .  S
C970       Br981   1.911       .  S
C971        C972   1.409       .  A
C971        C976   1.414       .  A
C972        C973   1.409       .  A
C972       Br983   1.919       .  S
C973        C974   1.412       .  A
C973       Br979   1.926       .  S
C974        C975   1.411       .  A
C975        C976   1.412       .  A
C975       Br984   1.927       .  S
C976       Br980   1.932       .  S
C985        C986   1.428       .  A
C985        C990   1.417       .  A
C986        C987   1.410       .  A
C986       Br998   1.915       .  S
C987        C988   1.406       .  A
C987      Br1002   1.915       .  S
C988        C989   1.426       .  A
C988        C991   1.527       .  S
C989        C990   1.419       .  A
C989       Br997   1.921       .  S
C990      Br1001   1.920   1_565  S
C991        C992   1.432       .  A
C991        C996   1.415       .  A
C992        C993   1.412   1_565  A
C992      Br1003   1.934   1_565  S
C993        C994   1.404   1_545  A
C993       Br999   1.931       .  S
C994        C995   1.408       .  A
C995        C996   1.410       .  A
C995      Br1004   1.928       .  S
C996      Br1000   1.920       .  S
C1005      C1006   1.400       .  A
C1005      C1010   1.420   1_655  A
C1006      C1007   1.397   1_655  A
C1006     Br1018   1.922       .  S
C1007      C1008   1.420       .  A
C1007     Br1022   1.929   1_455  S
C1008      C1009   1.425       .  A
C1008      C1011   1.527       .  S
C1009      C1010   1.431       .  A
C1009     Br1017   1.924       .  S
C1010     Br1021   1.925       .  S
C1011      C1012   1.430       .  A
C1011      C1016   1.404       .  A
C1012      C1013   1.438       .  A
C1012     Br1023   1.930       .  S
C1013      C1014   1.428       .  A
C1013     Br1019   1.919       .  S
C1014      C1015   1.427       .  A
C1015      C1016   1.396       .  A
C1015     Br1024   1.925       .  S
C1016     Br1020   1.943       .  S
C1025      C1026   1.411       .  A
C1025      C1030   1.406       .  A
C1026      C1027   1.413       .  A
C1026     Br1038   1.931       .  S
C1027      C1028   1.416       .  A
C1027     Br1042   1.929       .  S
C1028      C1029   1.417       .  A
C1028      C1031   1.512       .  S
C1029      C1030   1.409       .  A
C1029     Br1037   1.928       .  S
C1030     Br1041   1.928       .  S
C1031      C1032   1.390       .  A
C1031      C1036   1.404       .  A
C1032      C1033   1.415       .  A
C1032     Br1043   1.943       .  S
C1033      C1034   1.463       .  A
C1033     Br1039   1.929       .  S
C1034      C1035   1.420       .  A
C1035      C1036   1.414       .  A
C1035     Br1044   1.928       .  S
C1036     Br1040   1.870       .  S
C1045      C1046   1.404       .  A
C1045      C1050   1.407       .  A
C1046      C1047   1.411       .  A
C1046     Br1058   1.926       .  S
C1047      C1048   1.420       .  A
C1047     Br1062   1.923       .  S
C1048      C1049   1.434       .  A
C1048      C1051   1.526       .  S
C1049      C1050   1.414       .  A
C1049     Br1057   1.940       .  S
C1050     Br1061   1.934       .  S
C1051      C1052   1.430       .  A
C1051      C1056   1.411       .  A
C1052      C1053   1.422       .  A
C1052     Br1063   1.912       .  S
C1053      C1054   1.400       .  A
C1053     Br1059   1.913       .  S
C1054      C1055   1.431       .  A
C1055      C1056   1.408       .  A
C1055     Br1064   1.920       .  S
C1056     Br1060   1.931       .  S
C1065      C1066   1.428       .  A
C1065      C1070   1.412       .  A
C1066      C1067   1.395       .  A
C1066     Br1078   1.926       .  S
C1067      C1068   1.396       .  A
C1067     Br1082   1.938       .  S
C1068      C1069   1.428       .  A
C1068      C1071   1.508       .  S
C1069      C1070   1.438       .  A
C1069     Br1077   1.898       .  S
C1070     Br1081   1.924       .  S
C1071      C1072   1.417       .  A
C1071      C1076   1.418       .  A
C1072      C1073   1.415       .  A
C1072     Br1083   1.929       .  S
C1073      C1074   1.411       .  A
C1073     Br1079   1.929       .  S
C1074      C1075   1.408       .  A
C1075      C1076   1.415       .  A
C1075     Br1084   1.923       .  S
C1076     Br1080   1.931       .  S
C1085      C1086   1.412   1_655  A
C1085      C1090   1.407       .  A
C1086      C1087   1.411       .  A
C1086     Br1098   1.922       .  S
C1087      C1088   1.419       .  A
C1087     Br1102   1.915       .  S
C1088      C1089   1.414   1_455  A
C1088      C1091   1.520       .  S
C1089      C1090   1.406       .  A
C1089     Br1097   1.905       .  S
C1090     Br1101   1.927       .  S
C1091      C1092   1.423       .  A
C1091      C1096   1.425       .  A
C1092      C1093   1.413       .  A
C1092     Br1103   1.941       .  S
C1093      C1094   1.411       .  A
C1093     Br1099   1.930       .  S
C1094      C1095   1.424       .  A
C1095      C1096   1.425       .  A
C1095     Br1104   1.914       .  S
C1096     Br1100   1.947       .  S
C1105      C1106   1.424       .  A
C1105      C1110   1.419       .  A
C1106      C1107   1.396       .  A
C1106     Br1118   1.919       .  S
C1107      C1108   1.401       .  A
C1107     Br1122   1.925       .  S
C1108      C1109   1.432       .  A
C1108      C1111   1.514       .  S
C1109      C1110   1.430       .  A
C1109     Br1117   1.939       .  S
C1110     Br1121   1.922       .  S
C1111      C1112   1.412       .  A
C1111      C1116   1.431       .  A
C1112      C1113   1.413       .  A
C1112     Br1123   1.929       .  S
C1113      C1114   1.419       .  A
C1113     Br1119   1.921       .  S
C1114      C1115   1.402   1_556  A
C1115      C1116   1.404   1_554  A
C1115     Br1124   1.922       .  S
C1116     Br1120   1.938   1_556  S
C1125      C1126   1.415       .  A
C1125      C1130   1.408       .  A
C1126      C1127   1.402       .  A
C1126     Br1138   1.912       .  S
C1127      C1128   1.410       .  A
C1127     Br1142   1.927       .  S
C1128      C1129   1.420       .  A
C1128      C1131   1.503       .  S
C1129      C1130   1.407       .  A
C1129     Br1137   1.924       .  S
C1130     Br1141   1.926       .  S
C1131      C1132   1.416       .  A
C1131      C1136   1.410       .  A
C1132      C1133   1.402       .  A
C1132     Br1143   1.918       .  S
C1133      C1134   1.404       .  A
C1133     Br1139   1.930       .  S
C1134      C1135   1.426       .  A
C1135      C1136   1.416       .  A
C1135     Br1144   1.932       .  S
C1136     Br1140   1.928       .  S
C1145      C1146   1.439       .  A
C1145      C1150   1.464       .  A
C1146      C1147   1.422       .  A
C1146     Br1158   1.899       .  S
C1147      C1148   1.401       .  A
C1147     Br1162   1.927       .  S
C1148      C1149   1.387       .  A
C1148      C1151   1.501       .  S
C1149      C1150   1.412       .  A
C1149     Br1157   1.949       .  S
C1150     Br1161   1.919       .  S
C1151      C1152   1.420       .  A
C1151      C1156   1.414       .  A
C1152      C1153   1.402       .  A
C1152     Br1163   1.913       .  S
C1153      C1154   1.397       .  A
C1153     Br1159   1.931       .  S
C1154      C1155   1.405       .  A
C1155      C1156   1.405       .  A
C1155     Br1164   1.930       .  S
C1156     Br1160   1.920       .  S
C1165      C1166   1.417       .  A
C1165      C1170   1.412       .  A
C1166      C1167   1.421       .  A
C1166     Br1178   1.926       .  S
C1167      C1168   1.413       .  A
C1167     Br1182   1.933       .  S
C1168      C1169   1.419       .  A
C1168      C1171   1.517       .  S
C1169      C1170   1.415       .  A
C1169     Br1177   1.928       .  S
C1170     Br1181   1.932       .  S
C1171      C1172   1.392       .  A
C1171      C1176   1.406       .  A
C1172      C1173   1.407       .  A
C1172     Br1183   1.946       .  S
C1173      C1174   1.452       .  A
C1173     Br1179   1.891       .  S
C1174      C1175   1.440       .  A
C1175      C1176   1.427       .  A
C1175     Br1184   1.916       .  S
C1176     Br1180   1.901       .  S
C1185      C1186   1.410       .  A
C1185      C1190   1.410       .  A
C1186      C1187   1.414       .  A
C1186     Br1198   1.930       .  S
C1187      C1188   1.419       .  A
C1187     Br1202   1.916       .  S
C1188      C1189   1.424       .  A
C1188      C1191   1.532       .  S
C1189      C1190   1.417       .  A
C1189     Br1197   1.932       .  S
C1190     Br1201   1.926       .  S
C1191      C1192   1.421       .  A
C1191      C1196   1.416       .  A
C1192      C1193   1.420       .  A
C1192     Br1203   1.911       .  S
C1193      C1194   1.421       .  A
C1193     Br1199   1.920       .  S
C1194      C1195   1.425       .  A
C1195      C1196   1.421       .  A
C1195     Br1204   1.920       .  S
C1196     Br1200   1.920       .  S
C1205      C1206   1.425       .  A
C1205      C1210   1.414       .  A
C1206      C1207   1.418       .  A
C1206     Br1218   1.923       .  S
C1207      C1208   1.414       .  A
C1207     Br1222   1.925       .  S
C1208      C1209   1.413       .  A
C1208      C1211   1.521       .  S
C1209      C1210   1.415       .  A
C1209     Br1217   1.915       .  S
C1210     Br1221   1.926       .  S
C1211      C1212   1.417       .  A
C1211      C1216   1.421       .  A
C1212      C1213   1.414       .  A
C1212     Br1223   1.936       .  S
C1213      C1214   1.429       .  A
C1213     Br1219   1.933       .  S
C1214      C1215   1.418       .  A
C1215      C1216   1.420       .  A
C1215     Br1224   1.915       .  S
C1216     Br1220   1.929       .  S
C1225      C1226   1.409       .  A
C1225      C1230   1.423       .  A
C1226      C1227   1.409       .  A
C1226     Br1238   1.929       .  S
C1227      C1228   1.416       .  A
C1227     Br1242   1.916       .  S
C1228      C1229   1.416       .  A
C1228      C1231   1.522       .  S
C1229      C1230   1.425       .  A
C1229     Br1237   1.926       .  S
C1230     Br1241   1.927       .  S
C1231      C1232   1.411       .  A
C1231      C1236   1.420       .  A
C1232      C1233   1.411       .  A
C1232     Br1243   1.932       .  S
C1233      C1234   1.429       .  A
C1233     Br1239   1.930       .  S
C1234      C1235   1.422       .  A
C1235      C1236   1.422       .  A
C1235     Br1244   1.914       .  S
C1236     Br1240   1.929       .  S
C1245      C1246   1.400       .  A
C1245      C1250   1.403       .  A
C1246      C1247   1.412       .  A
C1246     Br1258   1.929       .  S
C1247      C1248   1.435       .  A
C1247     Br1262   1.931       .  S
C1248      C1249   1.419       .  A
C1248      C1251   1.526       .  S
C1249      C1250   1.411       .  A
C1249     Br1257   1.919       .  S
C1250     Br1261   1.927       .  S
C1251      C1252   1.426       .  A
C1251      C1256   1.404       .  A
C1252      C1253   1.429       .  A
C1252     Br1263   1.919       .  S
C1253      C1254   1.422       .  A
C1253     Br1259   1.915   1_455  S
C1254      C1255   1.434       .  A
C1255      C1256   1.408       .  A
C1255     Br1264   1.915       .  S
C1256     Br1260   1.924       .  S
C1265      C1266   1.410       .  A
C1265      C1270   1.409       .  A
C1266      C1267   1.413       .  A
C1266     Br1278   1.927       .  S
C1267      C1268   1.416       .  A
C1267     Br1282   1.924       .  S
C1268      C1269   1.419       .  A
C1268      C1271   1.512       .  S
C1269      C1270   1.416       .  A
C1269     Br1277   1.935       .  S
C1270     Br1281   1.925       .  S
C1271      C1272   1.389       .  A
C1271      C1276   1.411       .  A
C1272      C1273   1.408       .  A
C1272     Br1283   1.947       .  S
C1273      C1274   1.465       .  A
C1273     Br1279   1.941       .  S
C1274      C1275   1.429       .  A
C1275      C1276   1.423       .  A
C1275     Br1284   1.947       .  S
C1276     Br1280   1.890       .  S
C1285      C1286   1.415       .  A
C1285      C1290   1.420       .  A
C1286      C1287   1.412       .  A
C1286     Br1298   1.923       .  S
C1287      C1288   1.415       .  A
C1287     Br1302   1.938       .  S
C1288      C1289   1.418       .  A
C1288      C1291   1.506       .  S
C1289      C1290   1.419       .  A
C1289     Br1297   1.935       .  S
C1290     Br1301   1.906       .  S
C1291      C1292   1.420       .  A
C1291      C1296   1.419       .  A
C1292      C1293   1.406       .  A
C1292     Br1303   1.924       .  S
C1293      C1294   1.405       .  A
C1293     Br1299   1.929       .  S
C1294      C1295   1.409       .  A
C1295      C1296   1.410       .  A
C1295     Br1304   1.922       .  S
C1296     Br1300   1.931       .  S
C1305      C1306   1.414       .  A
C1305      C1310   1.403       .  A
C1306      C1307   1.420       .  A
C1306     Br1318   1.923   1_455  S
C1307      C1308   1.415       .  A
C1307     Br1322   1.929       .  S
C1308      C1309   1.414       .  A
C1308      C1311   1.511       .  S
C1309      C1310   1.406       .  A
C1309     Br1317   1.907       .  S
C1310     Br1321   1.928       .  S
C1311      C1312   1.400       .  A
C1311      C1316   1.405       .  A
C1312      C1313   1.417       .  A
C1312     Br1323   1.935       .  S
C1313      C1314   1.448       .  A
C1313     Br1319   1.917       .  S
C1314      C1315   1.416       .  A
C1315      C1316   1.407       .  A
C1315     Br1324   1.919       .  S
C1316     Br1320   1.888   1_455  S
C1325      C1326   1.405       .  A
C1325      C1330   1.410       .  A
C1326      C1327   1.405       .  A
C1326     Br1338   1.930       .  S
C1327      C1328   1.416       .  A
C1327     Br1342   1.923       .  S
C1328      C1329   1.411       .  A
C1328      C1331   1.494       .  S
C1329      C1330   1.413       .  A
C1329     Br1337   1.932       .  S
C1330     Br1341   1.928   1_554  S
C1331      C1332   1.396       .  A
C1331      C1336   1.410       .  A
C1332      C1333   1.392       .  A
C1332     Br1343   1.927       .  S
C1333      C1334   1.435       .  A
C1333     Br1339   1.934       .  S
C1334      C1335   1.431       .  A
C1335      C1336   1.414       .  A
C1335     Br1344   1.917       .  S
C1336     Br1340   1.885       .  S
C1345      C1346   1.429       .  A
C1345      C1350   1.430       .  A
C1346      C1347   1.419       .  A
C1346     Br1358   1.921       .  S
C1347      C1348   1.422       .  A
C1347     Br1362   1.925       .  S
C1348      C1349   1.424       .  A
C1348      C1351   1.537       .  S
C1349      C1350   1.431       .  A
C1349     Br1357   1.927       .  S
C1350     Br1361   1.918       .  S
C1351      C1352   1.432       .  A
C1351      C1356   1.425       .  A
C1352      C1353   1.415       .  A
C1352     Br1363   1.925       .  S
C1353      C1354   1.403       .  A
C1353     Br1359   1.926       .  S
C1354      C1355   1.405       .  A
C1355      C1356   1.417       .  A
C1355     Br1364   1.927       .  S
C1356     Br1360   1.920       .  S
C1365      C1366   1.407       .  A
C1365      C1370   1.412       .  A
C1366      C1367   1.406       .  A
C1366     Br1378   1.927       .  S
C1367      C1368   1.411       .  A
C1367     Br1382   1.926       .  S
C1368      C1369   1.412       .  A
C1368      C1371   1.494       .  S
C1369      C1370   1.411       .  A
C1369     Br1377   1.929       .  S
C1370     Br1381   1.928       .  S
C1371      C1372   1.401       .  A
C1371      C1376   1.389       .  A
C1372      C1373   1.416       .  A
C1372     Br1383   1.901       .  S
C1373      C1374   1.426       .  A
C1373     Br1379   1.921       .  S
C1374      C1375   1.460       .  A
C1375      C1376   1.406       .  A
C1375     Br1384   1.937       .  S
C1376     Br1380   1.941       .  S
C1385      C1386   1.411       .  A
C1385      C1390   1.405       .  A
C1386      C1387   1.420       .  A
C1386     Br1398   1.927       .  S
C1387      C1388   1.420       .  A
C1387     Br1402   1.927       .  S
C1388      C1389   1.428       .  A
C1388      C1391   1.520       .  S
C1389      C1390   1.409       .  A
C1389     Br1397   1.939       .  S
C1390     Br1401   1.932       .  S
C1391      C1392   1.384       .  A
C1391      C1396   1.410       .  A
C1392      C1393   1.413       .  A
C1392     Br1403   1.949       .  S
C1393      C1394   1.470       .  A
C1393     Br1399   1.925       .  S
C1394      C1395   1.445       .  A
C1395      C1396   1.431       .  A
C1395     Br1404   1.910       .  S
C1396     Br1400   1.931       .  S
C1405      C1406   1.428       .  A
C1405      C1410   1.465       .  A
C1406      C1407   1.422       .  A
C1406     Br1418   1.921       .  S
C1407      C1408   1.407       .  A
C1407     Br1422   1.907       .  S
C1408      C1409   1.394       .  A
C1408      C1411   1.508       .  S
C1409      C1410   1.412       .  A
C1409     Br1417   1.942       .  S
C1410     Br1421   1.954       .  S
C1411      C1412   1.417       .  A
C1411      C1416   1.416       .  A
C1412      C1413   1.399       .  A
C1412     Br1423   1.901       .  S
C1413      C1414   1.397       .  A
C1413     Br1419   1.935       .  S
C1414      C1415   1.412       .  A
C1415      C1416   1.416       .  A
C1415     Br1424   1.927       .  S
C1416     Br1420   1.928       .  S
C1425      C1426   1.415       .  A
C1425      C1430   1.401       .  A
C1426      C1427   1.422       .  A
C1426     Br1438   1.927       .  S
C1427      C1428   1.416       .  A
C1427     Br1442   1.927       .  S
C1428      C1429   1.424       .  A
C1428      C1431   1.520       .  S
C1429      C1430   1.409       .  A
C1429     Br1437   1.920       .  S
C1430     Br1441   1.931       .  S
C1431      C1432   1.378       .  A
C1431      C1436   1.402       .  A
C1432      C1433   1.404       .  A
C1432     Br1443   1.940       .  S
C1433      C1434   1.460       .  A
C1433     Br1439   1.917       .  S
C1434      C1435   1.441       .  A
C1435      C1436   1.434       .  A
C1435     Br1444   1.922   1_556  S
C1436     Br1440   1.890   1_556  S
C1445      C1446   1.406       .  A
C1445      C1450   1.405       .  A
C1446      C1447   1.416       .  A
C1446     Br1458   1.924       .  S
C1447      C1448   1.423       .  A
C1447     Br1462   1.929       .  S
C1448      C1449   1.428       .  A
C1448      C1451   1.522       .  S
C1449      C1450   1.409       .  A
C1449     Br1457   1.938       .  S
C1450     Br1461   1.931       .  S
C1451      C1452   1.416       .  A
C1451      C1456   1.404       .  A
C1452      C1453   1.418       .  A
C1452     Br1463   1.902       .  S
C1453      C1454   1.417       .  A
C1453     Br1459   1.918       .  S
C1454      C1455   1.438       .  A
C1455      C1456   1.418       .  A
C1455     Br1464   1.917       .  S
C1456     Br1460   1.945       .  S
C1465      C1466   1.423       .  A
C1465      C1470   1.417       .  A
C1466      C1467   1.399       .  A
C1466     Br1478   1.931       .  S
C1467      C1468   1.409       .  A
C1467     Br1482   1.935       .  S
C1468      C1469   1.423       .  A
C1468      C1471   1.504       .  S
C1469      C1470   1.418       .  A
C1469     Br1477   1.939       .  S
C1470     Br1481   1.921       .  S
C1471      C1472   1.417       .  A
C1471      C1476   1.421       .  A
C1472      C1473   1.414       .  A
C1472     Br1483   1.927       .  S
C1473      C1474   1.412       .  A
C1473     Br1479   1.926       .  S
C1474      C1475   1.399       .  A
C1475      C1476   1.398       .  A
C1475     Br1484   1.919   1_556  S
C1476     Br1480   1.934   1_556  S
C1485      C1486   1.404       .  A
C1485      C1490   1.414       .  A
C1486      C1487   1.401       .  A
C1486     Br1498   1.921       .  S
C1487      C1488   1.417       .  A
C1487     Br1502   1.934       .  S
C1488      C1489   1.421       .  A
C1488      C1491   1.517       .  S
C1489      C1490   1.423       .  A
C1489     Br1497   1.912       .  S
C1490     Br1501   1.927       .  S
C1491      C1492   1.432       .  A
C1491      C1496   1.415       .  A
C1492      C1493   1.420       .  A
C1492     Br1503   1.925       .  S
C1493      C1494   1.408       .  A
C1493     Br1499   1.936       .  S
C1494      C1495   1.411       .  A
C1495      C1496   1.397       .  A
C1495     Br1504   1.918       .  S
C1496     Br1500   1.940       .  S
C1505      C1506   1.404       .  A
C1505      C1510   1.400       .  A
C1506      C1507   1.407       .  A
C1506     Br1518   1.924       .  S
C1507      C1508   1.417       .  A
C1507     Br1522   1.930       .  S
C1508      C1509   1.432       .  A
C1508      C1511   1.511       .  S
C1509      C1510   1.405       .  A
C1509     Br1517   1.940       .  S
C1510     Br1521   1.934       .  S
C1511      C1512   1.416       .  A
C1511      C1516   1.396       .  A
C1512      C1513   1.414       .  A
C1512     Br1523   1.899       .  S
C1513      C1514   1.396       .  A
C1513     Br1519   1.898       .  S
C1514      C1515   1.424       .  A
C1515      C1516   1.411       .  A
C1515     Br1524   1.893       .  S
C1516     Br1520   1.917       .  S
C1525      C1526   1.445       .  A
C1525      C1530   1.436       .  A
C1526      C1527   1.402       .  A
C1526     Br1538   1.941       .  S
C1527      C1528   1.407       .  A
C1527     Br1542   1.924       .  S
C1528      C1529   1.422       .  A
C1528      C1531   1.533       .  S
C1529      C1530   1.426       .  A
C1529     Br1537   1.914       .  S
C1530     Br1541   1.943       .  S
C1531      C1532   1.624       .  A
C1531      C1536   1.648       .  A
C1532      C1533   1.609       .  A
C1532     Br1543   1.920       .  S
C1533      C1534   1.639       .  A
C1533     Br1539   1.923       .  S
C1534      C1535   1.609       .  A
C1535      C1536   1.606       .  A
C1535     Br1544   1.917       .  S
C1536     Br1540   1.941       .  S
C1545      C1546   1.434       .  A
C1545      C1550   1.419       .  A
C1546      C1547   1.422       .  A
C1546     Br1558   1.928       .  S
C1547      C1548   1.412       .  A
C1547     Br1562   1.933       .  S
C1548      C1549   1.411       .  A
C1548      C1551   1.523       .  S
C1549      C1550   1.408       .  A
C1549     Br1557   1.931       .  S
C1550     Br1561   1.925       .  S
C1551      C1552   1.391       .  A
C1551      C1556   1.430       .  A
C1552      C1553   1.393       .  A
C1552     Br1563   1.929       .  S
C1553      C1554   1.419       .  A
C1553     Br1559   1.939       .  S
C1554      C1555   1.530       .  A
C1555      C1556   1.494       .  A
C1555     Br1564   3.709       .  S
C1556     Br1560   1.954       .  S
C1565      C1566   1.430       .  A
C1565      C1570   1.474       .  A
C1566      C1567   1.417       .  A
C1566     Br1578   1.935       .  S
C1567      C1568   1.410       .  A
C1567     Br1582   1.910       .  S
C1568      C1569   1.388       .  A
C1568      C1571   1.500       .  S
C1569      C1570   1.413       .  A
C1569     Br1577   1.969       .  S
C1570     Br1581   1.935       .  S
C1571      C1572   1.419       .  A
C1571      C1576   1.424       .  A
C1572      C1573   1.407       .  A
C1572     Br1583   1.932       .  S
C1573      C1574   1.408       .  A
C1573     Br1579   1.932       .  S
C1574      C1575   1.402       .  A
C1575      C1576   1.403       .  A
C1575     Br1584   1.929       .  S
C1576     Br1580   1.940       .  S
C1585      C1586   1.399       .  A
C1585      C1590   1.412       .  A
C1586      C1587   1.402       .  A
C1586     Br1598   1.934       .  S
C1587      C1588   1.418       .  A
C1587     Br1602   1.912       .  S
C1588      C1589   1.416       .  A
C1588      C1591   1.509       .  S
C1589      C1590   1.419       .  A
C1589     Br1597   1.927       .  S
C1590     Br1601   1.925       .  S
C1591      C1592   1.389       .  A
C1591      C1596   1.408       .  A
C1592      C1593   1.409       .  A
C1592     Br1603   1.946       .  S
C1593      C1594   1.462       .  A
C1593     Br1599   1.934       .  S
C1594      C1595   1.434       .  A
C1595      C1596   1.423       .  A
C1595     Br1604   1.930       .  S
C1596     Br1600   1.907       .  S
C1605      C1606   1.401   1_455  A
C1605      C1610   1.404       .  A
C1606      C1607   1.405   1_655  A
C1606     Br1618   1.932       .  S
C1607      C1608   1.429       .  A
C1607     Br1622   1.935   1_455  S
C1608      C1609   1.419       .  A
C1608      C1611   1.508       .  S
C1609      C1610   1.407       .  A
C1609     Br1617   1.926       .  S
C1610     Br1621   1.929       .  S
C1611      C1612   1.420       .  A
C1611      C1616   1.400       .  A
C1612      C1613   1.418       .  A
C1612     Br1623   1.912       .  S
C1613      C1614   1.425       .  A
C1613     Br1619   1.927       .  S
C1614      C1615   1.436       .  A
C1615      C1616   1.399       .  A
C1615     Br1624   1.923   1_455  S
C1616     Br1620   1.919       .  S
C1625      C1626   1.470       .  A
C1625      C1630   1.433       .  A
C1626      C1627   1.412       .  A
C1626     Br1638   1.931       .  S
C1627      C1628   1.391       .  A
C1627     Br1642   1.970       .  S
C1628      C1629   1.413       .  A
C1628      C1631   1.501       .  S
C1629      C1630   1.426       .  A
C1629     Br1637   1.935       .  S
C1630     Br1641   1.922       .  S
C1631      C1632   1.425       .  A
C1631      C1636   1.420       .  A
C1632      C1633   1.405       .  A
C1632     Br1643   1.937       .  S
C1633      C1634   1.398       .  A
C1633     Br1639   1.927       .  S
C1634      C1635   1.403       .  A
C1635      C1636   1.405       .  A
C1635     Br1644   1.932       .  S
C1636     Br1640   1.926       .  S
C1645      C1646   1.433       .  A
C1645      C1650   1.400       .  A
C1646      C1647   1.406       .  A
C1646     Br1658   1.923       .  S
C1647      C1648   1.406       .  A
C1647     Br1662   1.930       .  S
C1648      C1649   1.420       .  A
C1648      C1651   1.515       .  S
C1649      C1650   1.414       .  A
C1649     Br1657   1.888       .  S
C1650     Br1661   1.918       .  S
C1651      C1652   1.416       .  A
C1651      C1656   1.422       .  A
C1652      C1653   1.414       .  A
C1652     Br1663   1.925       .  S
C1653      C1654   1.412       .  A
C1653     Br1659   1.927       .  S
C1654      C1655   1.411       .  A
C1655      C1656   1.415       .  A
C1655     Br1664   1.929       .  S
C1656     Br1660   1.939       .  S
C1665      C1666   1.409       .  A
C1665      C1670   1.411       .  A
C1666      C1667   1.410       .  A
C1666     Br1678   1.926       .  S
C1667      C1668   1.414       .  A
C1667     Br1682   1.932       .  S
C1668      C1669   1.410       .  A
C1668      C1671   1.497       .  S
C1669      C1670   1.412       .  A
C1669     Br1677   1.927       .  S
C1670     Br1681   1.927       .  S
C1671      C1672   1.391       .  A
C1671      C1676   1.396       .  A
C1672      C1673   1.414       .  A
C1672     Br1683   1.942       .  S
C1673      C1674   1.458       .  A
C1673     Br1679   1.921       .  S
C1674      C1675   1.425       .  A
C1675      C1676   1.408       .  A
C1675     Br1684   1.903   1_455  S
C1676     Br1680   1.908   1_455  S
C1685      C1686   1.457       .  A
C1685      C1690   1.446       .  A
C1686      C1687   1.408       .  A
C1686     Br1698   1.918       .  S
C1687      C1688   1.386       .  A
C1687     Br1702   1.945       .  S
C1688      C1689   1.404       .  A
C1688      C1691   1.520       .  S
C1689      C1690   1.431       .  A
C1689     Br1697   1.905   1_565  S
C1690     Br1701   1.924   1_565  S
C1691      C1692   1.418       .  A
C1691      C1696   1.421       .  A
C1692      C1693   1.420       .  A
C1692     Br1703   1.929       .  S
C1693      C1694   1.413       .  A
C1693     Br1699   1.924   1_565  S
C1694      C1695   1.409       .  A
C1695      C1696   1.407       .  A
C1695     Br1704   1.926       .  S
C1696     Br1700   1.932       .  S
C1705      C1706   1.403       .  A
C1705      C1710   1.438       .  A
C1706      C1707   1.402       .  A
C1706     Br1718   1.915       .  S
C1707      C1708   1.410       .  A
C1707     Br1722   1.931       .  S
C1708      C1709   1.420       .  A
C1708      C1711   1.514       .  S
C1709      C1710   1.422       .  A
C1709     Br1717   1.939       .  S
C1710     Br1721   1.931       .  S
C1711      C1712   1.418       .  A
C1711      C1716   1.416       .  A
C1712      C1713   1.422       .  A
C1712     Br1723   1.928       .  S
C1713      C1714   1.417       .  A
C1713     Br1719   1.921       .  S
C1714      C1715   1.398       .  A
C1715      C1716   1.396       .  A
C1715     Br1724   1.918       .  S
C1716     Br1720   1.919       .  S
C1725      C1726   1.425       .  A
C1725      C1730   1.427       .  A
C1726      C1727   1.405       .  A
C1726     Br1738   1.921       .  S
C1727      C1728   1.409       .  A
C1727     Br1742   1.934       .  S
C1728      C1729   1.421       .  A
C1728      C1731   1.509       .  S
C1729      C1730   1.420       .  A
C1729     Br1737   1.943       .  S
C1730     Br1741   1.918       .  S
C1731      C1732   1.420       .  A
C1731      C1736   1.418       .  A
C1732      C1733   1.400       .  A
C1732     Br1743   1.929       .  S
C1733      C1734   1.403       .  A
C1733     Br1739   1.923       .  S
C1734      C1735   1.413       .  A
C1735      C1736   1.413       .  A
C1735     Br1744   1.925       .  S
C1736     Br1740   1.925       .  S
C1745      C1746   1.404       .  A
C1745      C1750   1.402       .  A
C1746      C1747   1.410       .  A
C1746     Br1758   1.932       .  S
C1747      C1748   1.437       .  A
C1747     Br1762   1.942       .  S
C1748      C1749   1.422       .  A
C1748      C1751   1.528       .  S
C1749      C1750   1.412       .  A
C1749     Br1757   1.927       .  S
C1750     Br1761   1.924       .  S
C1751      C1752   1.407       .  A
C1751      C1756   1.433       .  A
C1752      C1753   1.405       .  A
C1752     Br1763   1.937       .  S
C1753      C1754   1.430       .  A
C1753     Br1759   1.918       .  S
C1754      C1755   1.409       .  A
C1755      C1756   1.430       .  A
C1755     Br1764   1.922   1_565  S
C1756     Br1760   1.910   1_565  S
C1765      C1766   1.403       .  A
C1765      C1770   1.394       .  A
C1766      C1767   1.402       .  A
C1766     Br1778   1.926       .  S
C1767      C1768   1.413       .  A
C1767     Br1782   1.921       .  S
C1768      C1769   1.432       .  A
C1768      C1771   1.501       .  S
C1769      C1770   1.398       .  A
C1769     Br1777   1.933       .  S
C1770     Br1781   1.931       .  S
C1771      C1772   1.421       .  A
C1771      C1776   1.394       .  A
C1772      C1773   1.417       .  A
C1772     Br1783   1.917   1_556  S
C1773      C1774   1.410       .  A
C1773     Br1779   1.910   1_556  S
C1774      C1775   1.423       .  A
C1775      C1776   1.403       .  A
C1775     Br1784   1.910       .  S
C1776     Br1780   1.919       .  S
C1785      C1786   1.392       .  A
C1785      C1790   1.403       .  A
C1786      C1787   1.402       .  A
C1786     Br1798   1.931       .  S
C1787      C1788   1.436       .  A
C1787     Br1802   1.934       .  S
C1788      C1789   1.422       .  A
C1788      C1791   1.516       .  S
C1789      C1790   1.413       .  A
C1789     Br1797   1.926       .  S
C1790     Br1801   1.925       .  S
C1791      C1792   1.429       .  A
C1791      C1796   1.403       .  A
C1792      C1793   1.424       .  A
C1792     Br1803   1.913       .  S
C1793      C1794   1.405       .  A
C1793     Br1799   1.917       .  S
C1794      C1795   1.421       .  A
C1795      C1796   1.404       .  A
C1795     Br1804   1.912       .  S
C1796     Br1800   1.923       .  S
C1805      C1806   1.415       .  A
C1805      C1810   1.411       .  A
C1806      C1807   1.421       .  A
C1806     Br1818   1.926       .  S
C1807      C1808   1.417       .  A
C1807     Br1822   1.928       .  S
C1808      C1809   1.418       .  A
C1808      C1811   1.520       .  S
C1809      C1810   1.417       .  A
C1809     Br1817   1.933       .  S
C1810     Br1821   1.927       .  S
C1811      C1812   1.406       .  A
C1811      C1816   1.391       .  A
C1812      C1813   1.423       .  A
C1812     Br1823   1.897       .  S
C1813      C1814   1.440       .  A
C1813     Br1819   1.937       .  S
C1814      C1815   1.461       .  A
C1815      C1816   1.418       .  A
C1815     Br1824   1.921       .  S
C1816     Br1820   1.948       .  S
C1825      C1826   1.405       .  A
C1825      C1830   1.416       .  A
C1826      C1827   1.409   1_554  A
C1826     Br1838   1.932       .  S
C1827      C1828   1.417       .  A
C1827     Br1842   1.918       .  S
C1828      C1829   1.412       .  A
C1828      C1831   1.509       .  S
C1829      C1830   1.416   1_556  A
C1829     Br1837   1.929       .  S
C1830     Br1841   1.925       .  S
C1831      C1832   1.407       .  A
C1831      C1836   1.393       .  A
C1832      C1833   1.417       .  A
C1832     Br1843   1.898   1_556  S
C1833      C1834   1.436       .  A
C1833     Br1839   1.943   1_556  S
C1834      C1835   1.456       .  A
C1835      C1836   1.412       .  A
C1835     Br1844   1.934       .  S
C1836     Br1840   1.940       .  S
C1845      C1846   1.408       .  A
C1845      C1850   1.405       .  A
C1846      C1847   1.407       .  A
C1846     Br1858   1.932       .  S
C1847      C1848   1.415       .  A
C1847     Br1862   1.925       .  S
C1848      C1849   1.413       .  A
C1848      C1851   1.494       .  S
C1849      C1850   1.404       .  A
C1849     Br1857   1.931       .  S
C1850     Br1861   1.924       .  S
C1851      C1852   1.396       .  A
C1851      C1856   1.387       .  A
C1852      C1853   1.421       .  A
C1852     Br1863   1.925       .  S
C1853      C1854   1.443       .  A
C1853     Br1859   1.905       .  S
C1854      C1855   1.459       .  A
C1855      C1856   1.411       .  A
C1855     Br1864   1.911       .  S
C1856     Br1860   1.951       .  S
C1865      C1866   1.419       .  A
C1865      C1870   1.423       .  A
C1866      C1867   1.403       .  A
C1866     Br1878   1.920       .  S
C1867      C1868   1.410       .  A
C1867     Br1882   1.918       .  S
C1868      C1869   1.426       .  A
C1868      C1871   1.515       .  S
C1869      C1870   1.420       .  A
C1869     Br1877   1.916       .  S
C1870     Br1881   1.935       .  S
C1871      C1872   1.430       .  A
C1871      C1876   1.422       .  A
C1872      C1873   1.410       .  A
C1872     Br1883   1.941       .  S
C1873      C1874   1.406       .  A
C1873     Br1879   1.932       .  S
C1874      C1875   1.408       .  A
C1875      C1876   1.411       .  A
C1875     Br1884   1.931       .  S
C1876     Br1880   1.932       .  S
C1885      C1886   1.399       .  A
C1885      C1890   1.399       .  A
C1886      C1887   1.408       .  A
C1886     Br1898   1.932       .  S
C1887      C1888   1.434       .  A
C1887     Br1902   1.932       .  S
C1888      C1889   1.420       .  A
C1888      C1891   1.524       .  S
C1889      C1890   1.408       .  A
C1889     Br1897   1.914       .  S
C1890     Br1901   1.926       .  S
C1891      C1892   1.404       .  A
C1891      C1896   1.424       .  A
C1892      C1893   1.412       .  A
C1892     Br1903   1.919       .  S
C1893      C1894   1.431       .  A
C1893     Br1899   1.918       .  S
C1894      C1895   1.404       .  A
C1895      C1896   1.420       .  A
C1895     Br1904   1.916       .  S
C1896     Br1900   1.898       .  S
C1905      C1906   1.461       .  A
C1905      C1910   1.434       .  A
C1906      C1907   1.405       .  A
C1906     Br1918   1.933       .  S
C1907      C1908   1.385       .  A
C1907     Br1922   1.943       .  S
C1908      C1909   1.402       .  A
C1908      C1911   1.497       .  S
C1909      C1910   1.423       .  A
C1909     Br1917   1.900       .  S
C1910     Br1921   1.929       .  S
C1911      C1912   1.412       .  A
C1911      C1916   1.413       .  A
C1912      C1913   1.406       .  A
C1912     Br1923   1.928       .  S
C1913      C1914   1.409       .  A
C1913     Br1919   1.926       .  S
C1914      C1915   1.405       .  A
C1915      C1916   1.407       .  A
C1915     Br1924   1.927       .  S
C1916     Br1920   1.919       .  S
C1925      C1926   1.411       .  A
C1925      C1930   1.440       .  A
C1926      C1927   1.425       .  A
C1926     Br1938   1.909       .  S
C1927      C1928   1.425       .  A
C1927     Br1942   1.903       .  S
C1928      C1929   1.401       .  A
C1928      C1931   1.529       .  S
C1929      C1930   1.408       .  A
C1929     Br1937   1.928       .  S
C1930     Br1941   1.914       .  S
C1931      C1932   1.436       .  A
C1931      C1936   1.419       .  A
C1932      C1933   1.416       .  A
C1932     Br1943   1.939       .  S
C1933      C1934   1.403       .  A
C1933     Br1939   1.930       .  S
C1934      C1935   1.408       .  A
C1935      C1936   1.415       .  A
C1935     Br1944   1.928       .  S
C1936     Br1940   1.930       .  S
C1945      C1946   1.448       .  A
C1945      C1950   1.391       .  A
C1946      C1947   1.438       .  A
C1946     Br1958   1.932       .  S
C1947      C1948   1.417       .  A
C1947     Br1962   1.920       .  S
C1948      C1949   1.392       .  A
C1948      C1951   1.502       .  S
C1949      C1950   1.391       .  A
C1949     Br1957   1.910       .  S
C1950     Br1961   1.927       .  S
C1951      C1952   1.413       .  A
C1951      C1956   1.403       .  A
C1952      C1953   1.420       .  A
C1952     Br1963   1.927       .  S
C1953      C1954   1.424       .  A
C1953     Br1959   1.915       .  S
C1954      C1955   1.434       .  A
C1955      C1956   1.410       .  A
C1955     Br1964   1.930       .  S
C1956     Br1960   1.926       .  S
C1965      C1966   1.432       .  A
C1965      C1970   1.429       .  A
C1966      C1967   1.439       .  A
C1966     Br1978   1.920       .  S
C1967      C1968   1.432       .  A
C1967     Br1982   1.943       .  S
C1968      C1969   1.408       .  A
C1968      C1971   1.535       .  S
C1969      C1970   1.409       .  A
C1969     Br1977   1.934       .  S
C1970     Br1981   1.924       .  S
C1971      C1972   1.431       .  A
C1971      C1976   1.422       .  A
C1972      C1973   1.409       .  A
C1972     Br1983   1.934       .  S
C1973      C1974   1.402       .  A
C1973     Br1979   1.921       .  S
C1974      C1975   1.413       .  A
C1975      C1976   1.423       .  A
C1975     Br1984   1.923       .  S
C1976     Br1980   1.927       .  S
C1985      C1986   1.400       .  A
C1985      C1990   1.431       .  A
C1986      C1987   1.409       .  A
C1986     Br1998   1.926       .  S
C1987      C1988   1.417       .  A
C1987     Br2002   1.892       .  S
C1988      C1989   1.407       .  A
C1988      C1991   1.506       .  S
C1989      C1990   1.407       .  A
C1989     Br1997   1.929       .  S
C1990     Br2001   1.927       .  S
C1991      C1992   1.418       .  A
C1991      C1996   1.420       .  A
C1992      C1993   1.413       .  A
C1992     Br2003   1.926       .  S
C1993      C1994   1.409       .  A
C1993     Br1999   1.928       .  S
C1994      C1995   1.408       .  A
C1995      C1996   1.410       .  A
C1995     Br2004   1.932       .  S
C1996     Br2000   1.939       .  S
C2005      C2006   1.435       .  A
C2005      C2010   1.464       .  A
C2006      C2007   1.415       .  A
C2006     Br2018   1.932       .  S
C2007      C2008   1.402       .  A
C2007     Br2022   1.897       .  S
C2008      C2009   1.386       .  A
C2008      C2011   1.495       .  S
C2009      C2010   1.404       .  A
C2009     Br2017   1.946       .  S
C2010     Br2021   1.939       .  S
C2011      C2012   1.416       .  A
C2011      C2016   1.413       .  A
C2012      C2013   1.399       .  A
C2012     Br2023   1.923       .  S
C2013      C2014   1.403       .  A
C2013     Br2019   1.936       .  S
C2014      C2015   1.408       .  A
C2015      C2016   1.410       .  A
C2015     Br2024   1.924       .  S
C2016     Br2020   1.930       .  S
C2025      C2026   1.431       .  A
C2025      C2030   1.415       .  A
C2026      C2027   1.411       .  A
C2026     Br2038   1.911       .  S
C2027      C2028   1.386       .  A
C2027     Br2042   1.916       .  S
C2028      C2029   1.416       .  A
C2028      C2031   1.522       .  S
C2029      C2030   1.424       .  A
C2029     Br2037   1.921       .  S
C2030     Br2041   1.914       .  S
C2031      C2032   1.409       .  A
C2031      C2036   1.429       .  A
C2032      C2033   1.417       .  A
C2032     Br2043   1.919       .  S
C2033      C2034   1.421       .  A
C2033     Br2039   1.933       .  S
C2034      C2035   1.407       .  A
C2035      C2036   1.413       .  A
C2035     Br2044   1.931       .  S
C2036     Br2040   1.937       .  S
C2045      C2046   1.442       .  A
C2045      C2050   1.421       .  A
C2046      C2047   1.420       .  A
C2046     Br2058   1.918       .  S
C2047      C2048   1.406       .  A
C2047     Br2062   1.922       .  S
C2048      C2049   1.416       .  A
C2048      C2051   1.532       .  S
C2049      C2050   1.420       .  A
C2049     Br2057   1.879       .  S
C2050     Br2061   1.919       .  S
C2051      C2052   1.425       .  A
C2051      C2056   1.422       .  A
C2052      C2053   1.413       .  A
C2052     Br2063   1.908       .  S
C2053      C2054   1.402       .  A
C2053     Br2059   1.936       .  S
C2054      C2055   1.413       .  A
C2055      C2056   1.423       .  A
C2055     Br2064   1.930       .  S
C2056     Br2060   1.923       .  S
C2065      C2066   1.413       .  A
C2065      C2070   1.411       .  A
C2066      C2067   1.416       .  A
C2066     Br2078   1.925       .  S
C2067      C2068   1.415       .  A
C2067     Br2082   1.930       .  S
C2068      C2069   1.408       .  A
C2068      C2071   1.510       .  S
C2069      C2070   1.406       .  A
C2069     Br2077   1.912       .  S
C2070     Br2081   1.931       .  S
C2071      C2072   1.414       .  A
C2071      C2076   1.396       .  A
C2072      C2073   1.425       .  A
C2072     Br2083   1.888       .  S
C2073      C2074   1.429       .  A
C2073     Br2079   1.938       .  S
C2074      C2075   1.424       .  A
C2075      C2076   1.402       .  A
C2075     Br2084   1.921       .  S
C2076     Br2080   1.913       .  S
C2085      C2086   1.401       .  A
C2085      C2090   1.405       .  A
C2086      C2087   1.408       .  A
C2086     Br2098   1.930       .  S
C2087      C2088   1.429       .  A
C2087     Br2102   1.923       .  S
C2088      C2089   1.435       .  A
C2088      C2091   1.530       .  S
C2089      C2090   1.417       .  A
C2089     Br2097   1.944       .  S
C2090     Br2101   1.932       .  S
C2091      C2092   1.428       .  A
C2091      C2096   1.413       .  A
C2092      C2093   1.424       .  A
C2092     Br2103   1.899       .  S
C2093      C2094   1.421       .  A
C2093     Br2099   1.934       .  S
C2094      C2095   1.419       .  A
C2095      C2096   1.406       .  A
C2095     Br2104   1.914       .  S
C2096     Br2100   1.925       .  S
C2105      C2106   1.436       .  A
C2105      C2110   1.429       .  A
C2106      C2107   1.386       .  A
C2106     Br2118   1.915       .  S
C2107      C2108   1.391       .  A
C2107     Br2122   1.924       .  S
C2108      C2109   1.427       .  A
C2108      C2111   1.507       .  S
C2109      C2110   1.429       .  A
C2109     Br2117   1.931       .  S
C2110     Br2121   1.931       .  S
C2111      C2112   1.378       .  A
C2111      C2116   1.418       .  A
C2112      C2113   1.397       .  A
C2112     Br2123   1.901       .  S
C2113      C2114   1.410       .  A
C2113     Br2119   1.915       .  S
C2114      C2115   1.434       .  A
C2115      C2116   1.429       .  A
C2115     Br2124   1.929       .  S
C2116     Br2120   1.926       .  S
C2125      C2126   1.410       .  A
C2125      C2130   1.412       .  A
C2126      C2127   1.411       .  A
C2126     Br2138   1.927       .  S
C2127      C2128   1.419       .  A
C2127     Br2142   1.934       .  S
C2128      C2129   1.420       .  A
C2128      C2131   1.522       .  S
C2129      C2130   1.422       .  A
C2129     Br2137   1.926       .  S
C2130     Br2141   1.925       .  S
C2131      C2132   1.393       .  A
C2131      C2136   1.410       .  A
C2132      C2133   1.407       .  A
C2132     Br2143   1.942       .  S
C2133      C2134   1.448       .  A
C2133     Br2139   1.923       .  S
C2134      C2135   1.417       .  A
C2135      C2136   1.424       .  A
C2135     Br2144   1.921       .  S
C2136     Br2140   1.862       .  S
C2145      C2146   1.428       .  A
C2145      C2150   1.402       .  A
C2146      C2147   1.399       .  A
C2146     Br2158   1.917       .  S
C2147      C2148   1.403       .  A
C2147     Br2162   1.927       .  S
C2148      C2149   1.434       .  A
C2148      C2151   1.524       .  S
C2149      C2150   1.428       .  A
C2149     Br2157   1.904       .  S
C2150     Br2161   1.929       .  S
C2151      C2152   1.422       .  A
C2151      C2156   1.437       .  A
C2152      C2153   1.416       .  A
C2152     Br2163   1.929       .  S
C2153      C2154   1.406       .  A
C2153     Br2159   1.928       .  S
C2154      C2155   1.401       .  A
C2155      C2156   1.411       .  A
C2155     Br2164   1.933       .  S
C2156     Br2160   1.946       .  S
C2165      C2166   1.463       .  A
C2165      C2170   1.422       .  A
C2166      C2167   1.411       .  A
C2166     Br2178   1.930       .  S
C2167      C2168   1.391       .  A
C2167     Br2182   1.946       .  S
C2168      C2169   1.416       .  A
C2168      C2171   1.513       .  S
C2169      C2170   1.423       .  A
C2169     Br2177   1.918       .  S
C2170     Br2181   1.924       .  S
C2171      C2172   1.417       .  A
C2171      C2176   1.419       .  A
C2172      C2173   1.420       .  A
C2172     Br2183   1.921       .  S
C2173      C2174   1.410       .  A
C2173     Br2179   1.928       .  S
C2174      C2175   1.404       .  A
C2175      C2176   1.406       .  A
C2175     Br2184   1.933       .  S
C2176     Br2180   1.923       .  S
C2185      C2186   1.427       .  A
C2185      C2190   1.432       .  A
C2186      C2187   1.425       .  A
C2186     Br2198   1.913       .  S
C2187      C2188   1.422       .  A
C2187     Br2202   1.942       .  S
C2188      C2189   1.407       .  A
C2188      C2191   1.516       .  S
C2189      C2190   1.407       .  A
C2189     Br2197   1.932       .  S
C2190     Br2201   1.933       .  S
C2191      C2192   1.421       .  A
C2191      C2196   1.425       .  A
C2192      C2193   1.418       .  A
C2192     Br2203   1.927       .  S
C2193      C2194   1.412       .  A
C2193     Br2199   1.926       .  S
C2194      C2195   1.401       .  A
C2195      C2196   1.402       .  A
C2195     Br2204   1.922       .  S
C2196     Br2200   1.938       .  S
C2205      C2206   1.403       .  A
C2205      C2210   1.430       .  A
C2206      C2207   1.406       .  A
C2206     Br2218   1.917       .  S
C2207      C2208   1.408       .  A
C2207     Br2222   1.883       .  S
C2208      C2209   1.410       .  A
C2208      C2211   1.519       .  S
C2209      C2210   1.427       .  A
C2209     Br2217   1.924       .  S
C2210     Br2221   1.891       .  S
C2211      C2212   1.418       .  A
C2211      C2216   1.419       .  A
C2212      C2213   1.413       .  A
C2212     Br2223   1.913       .  S
C2213      C2214   1.408       .  A
C2213     Br2219   1.932       .  S
C2214      C2215   1.413       .  A
C2215      C2216   1.416       .  A
C2215     Br2224   1.928       .  S
C2216     Br2220   1.932       .  S
C2225      C2226   1.414       .  A
C2225      C2230   1.405       .  A
C2226      C2227   1.425       .  A
C2226     Br2238   1.925       .  S
C2227      C2228   1.421       .  A
C2227     Br2242   1.929       .  S
C2228      C2229   1.423       .  A
C2228      C2231   1.531       .  S
C2229      C2230   1.413       .  A
C2229     Br2237   1.924       .  S
C2230     Br2241   1.928       .  S
C2231      C2232   1.389       .  A
C2231      C2236   1.409       .  A
C2232      C2233   1.419       .  A
C2232     Br2243   1.944       .  S
C2233      C2234   1.462       .  A
C2233     Br2239   1.918       .  S
C2234      C2235   1.462       .  A
C2235      C2236   1.441       .  A
C2235     Br2244   1.931       .  S
C2236     Br2240   1.936       .  S
C2245      C2246   1.421       .  A
C2245      C2250   1.432       .  A
C2246      C2247   1.412       .  A
C2246     Br2258   1.920       .  S
C2247      C2248   1.421       .  A
C2247     Br2262   1.920       .  S
C2248      C2249   1.422       .  A
C2248      C2251   1.534       .  S
C2249      C2250   1.432       .  A
C2249     Br2257   1.925       .  S
C2250     Br2261   1.922       .  S
C2251      C2252   1.416       .  A
C2251      C2256   1.429       .  A
C2252      C2253   1.412       .  A
C2252     Br2263   1.911       .  S
C2253      C2254   1.408       .  A
C2253     Br2259   1.930       .  S
C2254      C2255   1.406       .  A
C2255      C2256   1.417       .  A
C2255     Br2264   1.928       .  S
C2256     Br2260   1.926       .  S
C2265      C2266   1.455       .  A
C2265      C2270   1.441       .  A
C2266      C2267   1.412       .  A
C2266     Br2278   1.907       .  S
C2267      C2268   1.388       .  A
C2267     Br2282   1.950       .  S
C2268      C2269   1.415       .  A
C2268      C2271   1.524       .  S
C2269      C2270   1.437       .  A
C2269     Br2277   1.924       .  S
C2270     Br2281   1.930       .  S
C2271      C2272   1.424       .  A
C2271      C2276   1.418       .  A
C2272      C2273   1.414       .  A
C2272     Br2283   1.932       .  S
C2273      C2274   1.408       .  A
C2273     Br2279   1.928       .  S
C2274      C2275   1.416       .  A
C2275      C2276   1.425       .  A
C2275     Br2284   1.926       .  S
C2276     Br2280   1.928       .  S
C2285      C2286   1.393       .  A
C2285      C2290   1.449       .  A
C2286      C2287   1.394       .  A
C2286     Br2298   1.924       .  S
C2287      C2288   1.380       .  A
C2287     Br2302   1.907       .  S
C2288      C2289   1.414       .  A
C2288      C2291   1.499       .  S
C2289      C2290   1.438       .  A
C2289     Br2297   1.921       .  S
C2290     Br2301   1.930       .  S
C2291      C2292   1.413       .  A
C2291      C2296   1.415       .  A
C2292      C2293   1.402       .  A
C2292     Br2303   1.920       .  S
C2293      C2294   1.399       .  A
C2293     Br2299   1.925       .  S
C2294      C2295   1.426       .  A
C2295      C2296   1.424       .  A
C2295     Br2304   1.917       .  S
C2296     Br2300   1.925       .  S
C2305      C2306   1.447       .  A
C2305      C2310   1.425       .  A
C2306      C2307   1.413       .  A
C2306     Br2318   1.927       .  S
C2307      C2308   1.395       .  A
C2307     Br2322   1.935       .  S
C2308      C2309   1.421       .  A
C2308      C2311   1.527       .  S
C2309      C2310   1.431       .  A
C2309     Br2317   1.893       .  S
C2310     Br2321   1.918       .  S
C2311      C2312   1.416       .  A
C2311      C2316   1.431       .  A
C2312      C2313   1.418       .  A
C2312     Br2323   1.930       .  S
C2313      C2314   1.412       .  A
C2313     Br2319   1.926       .  S
C2314      C2315   1.405       .  A
C2315      C2316   1.417       .  A
C2315     Br2324   1.930       .  S
C2316     Br2320   1.935       .  S
