geometry optimzed in LAMMPS
_audit_creation_date              2020-12-01 
_audit_creation_method            'lammps2cif' 
_symmetry_space_group_name_H-M    'P1' 
_symmetry_Int_Tables_number       1 
_symmetry_cell_setting            triclinic 
loop_ 
_symmetry_equiv_pos_as_xyz 
  x,y,z 
_cell_length_a                    47.7256788 
_cell_length_b                    47.6661846965202 
_cell_length_c                    36.06260917835981 
_cell_angle_alpha                 90.28537849693257 
_cell_angle_beta                  90.18480552825103 
_cell_angle_gamma                 125.155164254246 
loop_ 
_atom_site_label 
_atom_site_type_symbol 
_atom_site_fract_x 
_atom_site_fract_y 
_atom_site_fract_z 
_atom_site_charge 
C1          C  0.54700362  0.86133037  0.00364754     0.80200
N2          N  0.54557381  0.87577560  0.47196416    -0.78100
C3          C  0.53910301  0.89998886  0.47326511     0.82600
N4          N  0.53512928  0.91032953  0.50670837    -0.78100
C5          C  0.53663951  0.89625268  0.03851468     0.82700
N6          N  0.54291789  0.87190457  0.03692964    -0.79800
C7          C  0.29558676  0.90748508  0.00457196     0.80200
N8          N  0.31071305  0.92136789  0.47151082    -0.78100
C9          C  0.34379068  0.94944861  0.47026053     0.82600
N10         N  0.36165183  0.96290701  0.00234985    -0.78100
C11         C  0.34650113  0.94976099  0.03546701     0.82700
N12         N  0.31360894  0.92194577  0.03633872    -0.79800
C13         C  0.53403303  0.96758677  0.34394801     0.42400
N14         N  0.51677232  0.98046686  0.29664045     0.01300
C15         C  0.61812355  0.12055509  0.18331314    -0.06600
H16         H  0.62223487  0.14817731  0.32658683     0.06800
C17         C  0.49908598  0.10133112  0.31951192    -0.06900
Co18       Co  0.57590023  0.03710580  0.25375789     0.74200
N19         N  0.60008123  0.10308860  0.29178787    -0.26100
Co20       Co  0.57206540  0.10733781  0.25102287     0.74100
C21         C  0.52994187  0.13061540  0.33633154     0.42500
N22         N  0.45904712  0.01687217  0.29432942     0.00900
N23         N  0.54439556  0.11301867  0.29093675     0.01000
N24         N  0.61999368  0.07422722  0.18560848    -0.47000
H25         H  0.59067562  0.00721923  0.32971309     0.06800
N26         N  0.60158626  0.07634669  0.29262905     0.01300
N27         N  0.54257754  0.10958270  0.21036996     0.01000
C28         C  0.52551495  0.12327116  0.16366455     0.42600
N29         N  0.46004485  0.98980044  0.29536461    -0.25600
C30         C  0.56104289  0.98692515  0.18974870    -0.06500
N31         N  0.50567838  0.95942214  0.32527802    -0.46700
N32         N  0.55377047  0.13098283  0.18212652    -0.46900
C33         C  0.53063883  0.95611779  0.17400968     0.42400
N34         N  0.60031451  0.07340619  0.21199705     0.01300
N35         N  0.45919902  0.98719756  0.21473436    -0.25600
N36         N  0.55053887  0.00134148  0.29543704    -0.26100
N37         N  0.45798451  0.01415653  0.21413128     0.00900
H38         H  0.43576245  0.94178235  0.18049962     0.06800
H39         H  0.46876416  0.08392015  0.17818641     0.06900
N40         N  0.59891946  0.10024256  0.21130231    -0.26100
N41         N  0.51064129  0.09211302  0.29164613    -0.25700
N42         N  0.51521482  0.97658645  0.21584617     0.01300
C43         C  0.63221263  0.10721048  0.33881730     0.42700
C44         C  0.44033815  0.96969667  0.32335599    -0.07000
N45         N  0.50885093  0.08889321  0.21159016    -0.25700
H46         H  0.47255423  0.08907086  0.32696240     0.06800
N47         N  0.62039322  0.07770905  0.32045033    -0.47000
H48         H  0.43629087  0.94575129  0.33098306     0.06800
C49         C  0.42764342  0.98412548  0.16760503     0.42500
C50         C  0.56372380  0.99477234  0.32402733    -0.06500
Co51       Co  0.48716551  0.98256451  0.25566852     0.73800
N52         N  0.43931107  0.01651997  0.32021514    -0.46700
C53         C  0.63186647  0.10311435  0.16617190     0.42800
N54         N  0.50306434  0.95147349  0.19102030    -0.46700
Co55       Co  0.48361919  0.05308080  0.25301727     0.73900
C56         C  0.49572325  0.09593348  0.18337771    -0.07000
C57         C  0.61860967  0.12409808  0.32011196    -0.06600
N58         N  0.54898548  0.99756042  0.21552000    -0.26100
N59         N  0.55716274  0.13658792  0.31752047    -0.46900
H60         H  0.62234213  0.14474466  0.17631656     0.06800
C61         C  0.44030506  0.96633558  0.18643252    -0.07000
Cl62       Cl  0.52967253  0.04497420  0.25332310    -0.50000
C63         C  0.42633540  0.98739676  0.33940616     0.42600
H64         H  0.58775442  0.99861901  0.18392081     0.06800
N65         N  0.43929478  0.01327351  0.18650642    -0.46700
C66         C  0.51977698  0.23309648  0.00392796     0.80200
N67         N  0.52358644  0.22167319  0.47107727    -0.78100
C68         C  0.52982042  0.19733470  0.46988461     0.82600
N69         N  0.53214148  0.18454806  0.50229292    -0.78100
C70         C  0.52848050  0.19563308  0.03531915     0.82700
N71         N  0.52211092  0.21991611  0.03612233    -0.79800
C72         C  0.76625369  0.19350266  0.00097138     0.80200
N73         N  0.74643441  0.17973841  0.47002738    -0.78100
C74         C  0.71251107  0.15472808  0.47281764     0.82600
N75         N  0.69843670  0.14296247  0.00654019    -0.78100
C76         C  0.71789951  0.15619279  0.03766262     0.82700
N77         N  0.75192877  0.18154246  0.03490530    -0.79800
C78         C  0.07654045  0.64714473  0.33776518     0.42400
N79         N  0.07831481  0.61785494  0.29368917     0.01300
C80         C  0.94450485  0.49427603  0.18256596    -0.06600
H81         H  0.92840939  0.46787540  0.32415259     0.06800
C82         C  0.03162997  0.46357598  0.32013296    -0.06900
Co83       Co  0.01248827  0.57659945  0.25125318     0.74200
N84         N  0.96553192  0.51036311  0.29013848    -0.26100
Co85       Co  0.98190958  0.49089170  0.25043348     0.74100
C86         C  0.99730367  0.44317957  0.33637510     0.42500
N87         N  0.09833580  0.54673294  0.29420673     0.00900
N88         N  0.99774184  0.47240062  0.29116207     0.01000
N89         N  0.96543256  0.55061225  0.18287841    -0.47000
H90         H  0.02000067  0.62510598  0.32484592     0.06800
N91         N  0.97754751  0.54316179  0.29030115     0.01300
N92         N  0.99973982  0.47302487  0.21032180     0.01000
C93         C  0.00312241  0.44633870  0.16381686     0.42600
N94         N  0.11030969  0.57953611  0.29464681    -0.25600
C95         C  0.04418306  0.62481526  0.18386945    -0.06500
N96         N  0.09695540  0.64033938  0.32029140    -0.46700
N97         N  0.98212144  0.45208289  0.18224254    -0.46900
C98         C  0.07762569  0.64455363  0.16656859     0.42400
N99         N  0.97902494  0.54331256  0.20986772     0.01300
N100        N  0.11183086  0.58015752  0.21446925    -0.25600
N101        N  0.04664586  0.60923179  0.29259263    -0.26100
N102        N  0.10010026  0.54752566  0.21384693     0.00900
H103        H  0.14911407  0.62362803  0.18356938     0.06800
H104        H  0.05948968  0.46831092  0.17990490     0.06900
N105        N  0.96728442  0.51063318  0.21007643    -0.26100
N106        N  0.02925876  0.48066654  0.29225539    -0.25700
N107        N  0.07979420  0.61828877  0.21297708     0.01300
C108        C  0.94145189  0.52193738  0.33450020     0.42700
C109        C  0.13227015  0.59497972  0.32320223    -0.07000
N110        N  0.03130467  0.48159306  0.21176975    -0.25700
H111        H  0.05422617  0.46460375  0.32727033     0.06800
N112        N  0.96415531  0.55123320  0.31663725    -0.47000
H113        H  0.14611939  0.62181053  0.33066694     0.06800
C114        C  0.13672760  0.56980635  0.16933851     0.42500
C115        C  0.04291521  0.62621991  0.31965294    -0.06500
Co116      Co  0.09578021  0.59967840  0.25401126     0.73800
N117        N  0.11082538  0.53843070  0.32133766    -0.46700
C118        C  0.94381135  0.52099992  0.16406341     0.42800
N119        N  0.09863945  0.63962569  0.18597232    -0.46700
Co120      Co  0.06509059  0.51374366  0.25307416     0.73900
C121        C  0.03594058  0.46595497  0.18400002    -0.07000
C122        C  0.94250453  0.49471695  0.31741563    -0.06600
N123        N  0.04795697  0.60926913  0.21221582    -0.26100
N124        N  0.97800618  0.45032624  0.31704267    -0.46900
H125        H  0.92957765  0.46695957  0.17779977     0.06800
C126        C  0.13512462  0.59644998  0.18775145    -0.07000
Cl127      Cl  0.03881670  0.54523910  0.25225531    -0.50000
C128        C  0.13265766  0.56759811  0.34039013     0.42600
H129        H  0.02099879  0.62260883  0.17651525     0.06800
N130        N  0.11422548  0.54031475  0.18749156    -0.46700
C131        C  0.23503836  0.55330298  0.00020957     0.80200
N132        N  0.22498017  0.55623109  0.03443855    -0.78100
C133        C  0.19966902  0.56100025  0.03778856     0.82600
N134        N  0.18479190  0.56322762  0.00703425    -0.78100
C135        C  0.19441241  0.56006933  0.47296893     0.82700
N136        N  0.21993067  0.55566529  0.46961178    -0.79800
C137        C  0.90731536  0.31025833  0.99893177     0.80200
N138        N  0.92100227  0.32680374  0.03169860    -0.78100
C139        C  0.94992109  0.35927238  0.03252677     0.82600
N140        N  0.96513158  0.37517767  0.00020525    -0.78100
C141        C  0.95185478  0.35886494  0.46722460     0.82700
N142        N  0.92251329  0.32664172  0.46679686    -0.79800
C143        C  0.84205259  0.53620439  0.99854157     0.80200
N144        N  0.85710794  0.53552342  0.46696583    -0.78100
C145        C  0.88197114  0.53001014  0.46873555     0.82600
N146        N  0.89160250  0.52523582  0.00202921    -0.78100
C147        C  0.87715147  0.52632582  0.03378324     0.82700
N148        N  0.85224617  0.53175112  0.03185414    -0.79800
C149        C  0.16114618  0.77910434  0.00326489     0.80200
N150        N  0.14558644  0.76340305  0.47079066    -0.78100
C151        C  0.11727396  0.73054865  0.47005310     0.82600
N152        N  0.10510320  0.71312778  0.00231975    -0.78100
C153        C  0.12036850  0.72838366  0.03529914     0.82700
N154        N  0.14872087  0.76117380  0.03523825    -0.79800
C155        C  0.63234343  0.57178994  0.15126519     0.42400
N156        N  0.61310788  0.58190846  0.19937495     0.01300
C157        C  0.48787740  0.46197577  0.31778477    -0.06600
H158        H  0.45178521  0.44266110  0.17650297     0.06800
C159        C  0.46983934  0.55932927  0.18092215    -0.06900
Co160      Co  0.56751966  0.51815711  0.24340876     0.74200
N161        N  0.49837215  0.47733213  0.20756614    -0.26100
Co162      Co  0.48607597  0.49946359  0.24814071     0.74100
C163        C  0.44605092  0.52635764  0.16331323     0.42500
N164        N  0.55407590  0.61648292  0.20392398     0.00900
N165        N  0.47064072  0.51947425  0.20815879     0.01000
N166        N  0.54131459  0.47474169  0.31375460    -0.47000
H167        H  0.60283962  0.51437805  0.16536693     0.06800
N168        N  0.52938502  0.48436933  0.20590535     0.01300
N169        N  0.47478750  0.52242322  0.28878547     0.01000
C170        C  0.45337930  0.53175883  0.33475441     0.42600
N171        N  0.58531903  0.62415757  0.20193806    -0.25600
C172        C  0.62170183  0.54642654  0.30621856    -0.06500
N173        N  0.63334765  0.59682410  0.17036675    -0.46700
N174        N  0.45332623  0.50692577  0.31671639    -0.46900
C175        C  0.64768741  0.58011929  0.32160866     0.42400
N176        N  0.53482775  0.48874107  0.28646242     0.01300
N177        N  0.58984761  0.62660422  0.28261691    -0.25600
N178        N  0.59927853  0.54868777  0.20059587    -0.26100
N179        N  0.55851339  0.61883969  0.28412902     0.00900
H180        H  0.63541618  0.66058205  0.31506701     0.06800
H181        H  0.48224569  0.58908792  0.32157367     0.06900
N182        N  0.50371246  0.48154877  0.28809211    -0.26100
N183        N  0.48412939  0.55264464  0.20808278    -0.25700
N184        N  0.61908225  0.58556576  0.28006525     0.01300
C185        C  0.50117754  0.44665748  0.16320638     0.42700
C186        C  0.60148003  0.64575484  0.17361101    -0.07000
N187        N  0.48842847  0.55557997  0.28771455    -0.25700
H188        H  0.47562812  0.58418381  0.17421356     0.06800
N189        N  0.53218644  0.46667364  0.17967585    -0.47000
H190        H  0.62780538  0.65724371  0.16584750     0.06800
C191        C  0.58455635  0.65375927  0.32951701     0.42500
C192        C  0.60985158  0.53990211  0.17140424    -0.06500
Co193      Co  0.60276184  0.60536291  0.24095721     0.73800
N194        N  0.54770847  0.63182911  0.17829388    -0.46700
C195        C  0.51296119  0.45763522  0.33491414     0.42800
N196        N  0.64432425  0.60320539  0.30456575    -0.46700
Co197      Co  0.52111417  0.58623962  0.24596641     0.73900
C198        C  0.47626374  0.56389391  0.31574471    -0.07000
C199        C  0.47868232  0.45393776  0.18134475    -0.06600
N200        N  0.60551092  0.55239549  0.28058219    -0.26100
N201        N  0.44767029  0.50256442  0.18130320    -0.46900
H202        H  0.46202349  0.45202875  0.32619991     0.06800
C203        C  0.60851615  0.64890186  0.31018476    -0.07000
Cl204      Cl  0.54439237  0.55230203  0.24461682    -0.50000
C205        C  0.57636965  0.65096005  0.15810301     0.42600
H206        H  0.61654613  0.52173499  0.31235729     0.06800
N207        N  0.55436308  0.63457264  0.31145451    -0.46700
C208        C  0.49091365  0.33476770  0.49565497     0.80200
N209        N  0.48586736  0.34582082  0.02804273    -0.78100
C210        C  0.48124593  0.37140516  0.02848410     0.82600
N211        N  0.48203433  0.38604638  0.99601405    -0.78100
C212        C  0.48606066  0.37451994  0.46341571     0.82700
N213        N  0.49101864  0.34923573  0.46333051    -0.79800
C214        C  0.34364802  0.53394633  0.49666983     0.80200
N215        N  0.35474669  0.52936165  0.02934511    -0.78100
C216        C  0.37800188  0.52162088  0.02965413     0.82600
N217        N  0.39020959  0.51887078  0.49706690    -0.78100
C218        C  0.37962816  0.52350620  0.46429257     0.82700
N219        N  0.35623409  0.53109266  0.46416054    -0.79800
C220        C  0.74844336  0.57527190  0.49113193     0.80200
N221        N  0.73337628  0.57529345  0.02285114    -0.78100
C222        C  0.70853702  0.58081926  0.02211017     0.82600
N223        N  0.69898333  0.58664517  0.98913856    -0.78100
C224        C  0.71409082  0.58698991  0.45717390     0.82700
N225        N  0.73847276  0.58073355  0.45833884    -0.79800
C226        C  0.58268404  0.76488014  0.49489884     0.80200
N227        N  0.58425785  0.75091498  0.02683666    -0.78100
C228        C  0.58856979  0.72516627  0.02590512     0.82600
N229        N  0.58992464  0.71258855  0.99273337    -0.78100
C230        C  0.58798975  0.72598276  0.46047145     0.82700
N231        N  0.58439169  0.75224487  0.46177402    -0.79800
C232        C  0.43163559  0.53634131  0.43343147    -0.05800
C233        C  0.39684751  0.52387883  0.43005532     0.00100
C234        C  0.37999936  0.51134326  0.39520043    -0.08500
C235        C  0.39928604  0.51349872  0.36456363    -0.05900
C236        C  0.43408353  0.52699738  0.36819474     0.00100
C237        C  0.45049311  0.53770623  0.40303197    -0.08400
C238        C  0.48754943  0.54983556  0.40798107     0.62000
H239        H  0.44426616  0.54549633  0.46015721     0.12700
H240        H  0.38754556  0.50532730  0.33729877     0.12700
C241        C  0.34199936  0.49522818  0.39016913     0.62200
F242        F  0.49783770  0.55662408  0.44479008    -0.22900
F243        F  0.50901497  0.57953142  0.38811543    -0.20300
F244        F  0.49120501  0.52465256  0.39534019    -0.19900
F245        F  0.33592869  0.52023776  0.39277146    -0.20000
F246        F  0.32353187  0.47068563  0.41704194    -0.20300
F247        F  0.33014062  0.47927486  0.35588120    -0.23000
C248        C  0.42815522  0.53203561  0.06323928    -0.05800
C249        C  0.39342047  0.51997092  0.06455064     0.00100
C250        C  0.37506493  0.50630614  0.09815379    -0.08500
C251        C  0.39299903  0.50753887  0.12986950    -0.05900
C252        C  0.42788609  0.52103084  0.12846243     0.00100
C253        C  0.44567440  0.53244728  0.09463241    -0.08400
C254        C  0.48290784  0.54473820  0.09170682     0.62000
H255        H  0.44193800  0.54199410  0.03745609     0.12700
H256        H  0.38015098  0.49886754  0.15633105     0.12700
C257        C  0.33684831  0.48984318  0.10075617     0.62200
F258        F  0.49406687  0.55098524  0.05534885    -0.22900
F259        F  0.48648990  0.51992418  0.10552188    -0.20300
F260        F  0.50379196  0.57481898  0.11172167    -0.19900
F261        F  0.31974724  0.46647749  0.07206704    -0.20000
F262        F  0.33057943  0.51468827  0.09896613    -0.20300
F263        F  0.32352787  0.47246443  0.13378099    -0.23000
C264        C  0.57203203  0.69095879  0.36127075    -0.05800
C265        C  0.58957551  0.67533964  0.36191126     0.00100
C266        C  0.60700572  0.67716756  0.39457665    -0.08500
C267        C  0.60773819  0.69628585  0.42474041    -0.05900
C268        C  0.58928041  0.71098500  0.42478274     0.00100
C269        C  0.57064949  0.70798156  0.39241590    -0.08400
C270        C  0.54802425  0.72088736  0.39076807     0.62000
H271        H  0.55834883  0.68874931  0.33616272     0.12700
H272        H  0.62248394  0.69933515  0.44911339     0.12700
C273        C  0.62326363  0.65780499  0.39886526     0.62200
F274        F  0.52904842  0.71107418  0.35819307    -0.22900
F275        F  0.56804360  0.75632071  0.39258108    -0.20300
F276        F  0.52516153  0.70756641  0.41990995    -0.19900
F277        F  0.65313780  0.67387850  0.37865165    -0.20000
F278        F  0.60093852  0.62420176  0.38679551    -0.20300
F279        F  0.63128435  0.65682460  0.43555228    -0.23000
C280        C  0.56444680  0.70291402  0.08766865    -0.05800
C281        C  0.58821962  0.70868739  0.06066980     0.00100
C282        C  0.60978158  0.69768923  0.06707127    -0.08500
C283        C  0.60523306  0.67938675  0.09950754    -0.05900
C284        C  0.58026879  0.67204856  0.12576680     0.00100
C285        C  0.55986353  0.68468979  0.12019480    -0.08400
C286        C  0.53310341  0.67909780  0.14779936     0.62000
H287        H  0.54833651  0.71167131  0.08230540     0.12700
H288        H  0.62060288  0.66964154  0.10377874     0.12700
C289        C  0.63679362  0.70387310  0.03964580     0.62200
F290        F  0.52004909  0.69771699  0.13885872    -0.22900
F291        F  0.54746947  0.68937396  0.18289681    -0.20300
F292        F  0.50599116  0.64483126  0.14800695    -0.19900
F293        F  0.65334320  0.73622303  0.02437426    -0.20000
F294        F  0.62130852  0.67921217  0.01195868    -0.20300
F295        F  0.66156075  0.70178684  0.05660306    -0.23000
C296        C  0.67438864  0.60921180  0.38114938    -0.05800
C297        C  0.67134100  0.58758547  0.35254908     0.00100
C298        C  0.68739483  0.57037417  0.35639189    -0.08500
C299        C  0.70105235  0.57094453  0.39102242    -0.05900
C300        C  0.70163777  0.59028992  0.42089011     0.00100
C301        C  0.69004754  0.61151177  0.41523062    -0.08400
C302        C  0.69331651  0.63596111  0.44486115     0.62000
H303        H  0.66270416  0.62290684  0.37744476     0.12700
H304        H  0.71109651  0.55570752  0.39476613     0.12700
C305        C  0.69105563  0.55146857  0.32489111     0.62200
F306        F  0.69028734  0.66072279  0.42979687    -0.22900
F307        F  0.72507819  0.65284673  0.46206225    -0.20300
F308        F  0.66779098  0.61794131  0.97079079    -0.19900
F309        F  0.68703016  0.56145336  0.29048349    -0.20000
F310        F  0.66712130  0.51653261  0.32884303    -0.20300
F311        F  0.72349442  0.55840725  0.32587738    -0.23900
C312        C  0.66240120  0.55320487  0.11459846    -0.05800
C313        C  0.65355126  0.57648062  0.11877276     0.00100
C314        C  0.66396726  0.60204007  0.09158773    -0.08500
C315        C  0.68250785  0.60285266  0.06085317    -0.05900
C316        C  0.69089117  0.57922226  0.05652837     0.00100
C317        C  0.68074910  0.55387656  0.08394461    -0.08400
C318        C  0.68822860  0.52693604  0.08085169     0.62000
H319        H  0.65503033  0.53432549  0.13594712     0.12700
H320        H  0.69083142  0.62221845  0.03980305     0.12700
C321        C  0.65511946  0.62788469  0.09423337     0.62200
F322        F  0.67152465  0.50200885  0.10779485    -0.22900
F323        F  0.72299002  0.54230900  0.58523118    -0.20300
F324        F  0.67737927  0.51062531  0.04667600    -0.19900
F325        F  0.67182729  0.64942328  0.12436770    -0.20000
F326        F  0.62009026  0.61100112  0.09798597    -0.20300
F327        F  0.66505634  0.64800769  0.06288679    -0.23000
C328        C  0.47361064  0.40790494  0.37446426    -0.05800
C329        C  0.50746618  0.43588654  0.36723519     0.00100
C330        C  0.53436120  0.44256586  0.39136058    -0.08500
C331        C  0.52597045  0.42135983  0.42228291    -0.05900
C332        C  0.49215616  0.39409805  0.42958235     0.00100
C333        C  0.46547778  0.38676533  0.40536642    -0.08400
C334        C  0.42869597  0.35697366  0.41247013     0.62000
H335        H  0.45335011  0.40258283  0.35567510     0.12700
H336        H  0.54581048  0.42596374  0.44138606     0.12700
C337        C  0.57161101  0.47201336  0.38537512     0.62200
F338        F  0.40682475  0.35303752  0.38435858    -0.22900
F339        F  0.41775353  0.36251139  0.44538655    -0.20300
F340        F  0.42655507  0.32684605  0.41491155    -0.19900
F341        F  0.57468681  0.50262450  0.38292481    -0.20000
F342        F  0.58334784  0.46631818  0.35320416    -0.20300
F343        F  0.59255009  0.47521431  0.41420962    -0.23000
C344        C  0.47100603  0.42155167  0.10354864    -0.05800
C345        C  0.49331139  0.42397869  0.13088406     0.00100
C346        C  0.50791242  0.40537588  0.12641189    -0.08500
C347        C  0.50198212  0.38743301  0.09306430    -0.05900
C348        C  0.48184056  0.38715981  0.06435484     0.00100
C349        C  0.46479790  0.40329859  0.07022516    -0.08400
C350        C  0.44004700  0.40134534  0.04193478     0.62000
H351        H  0.45948933  0.43534814  0.10777827     0.12700
H352        H  0.51448823  0.37463602  0.08863655     0.12700
C353        C  0.52935727  0.40392639  0.15660590     0.62200
F354        F  0.42102219  0.41213337  0.05688835    -0.22900
F355        F  0.41734729  0.36783184  0.02979092    -0.20300
F356        F  0.45794231  0.42215934  0.51210303    -0.19900
F357        F  0.51235761  0.39560613  0.19009498    -0.20000
F358        F  0.56074287  0.43528555  0.15979709    -0.20300
F359        F  0.53544355  0.37938228  0.14893705    -0.23000
C360        C  0.76220337  0.53478019  0.50913523    -0.05800
C361        C  0.77286948  0.56585888  0.99214563     0.00100
C362        C  0.80617492  0.58701096  0.97717897    -0.08500
C363        C  0.82789367  0.57612457  0.97973922    -0.05900
C364        C  0.81728371  0.54513867  0.99680962     0.00100
C365        C  0.78383834  0.52377180  0.51147643    -0.08400
C366        C  0.77058190  0.48900232  0.52804729     0.62000
H367        H  0.73649561  0.51893890  0.52013946     0.12700
H368        H  0.85360088  0.59193363  0.96867549     0.12700
C369        C  0.81905022  0.62128865  0.95960868     0.62200
F370        F  0.73605546  0.47074742  0.53639141    -0.22900
F371        F  0.78817923  0.49315542  0.56042233    -0.20300
F372        F  0.77496004  0.46973789  0.50304519    -0.19900
F373        F  0.81458389  0.64099647  0.98382757    -0.20000
F374        F  0.80114316  0.61606879  0.92712584    -0.20300
F375        F  0.85353423  0.63957422  0.95109573    -0.23000
C376        C  0.29251382  0.57022651  0.01868669    -0.05800
C377        C  0.26325289  0.54908506  0.99655707     0.00100
C378        C  0.26147693  0.52437604  0.47259406    -0.08500
C379        C  0.28874853  0.52080446  0.47306619    -0.05900
C380        C  0.31735875  0.54105210  0.49634149     0.00100
C381        C  0.32002911  0.56711079  0.01854833    -0.08400
C382        C  0.35206246  0.59230978  0.04109629     0.62000
H383        H  0.29365605  0.58936908  0.03624029     0.12700
H384        H  0.28763035  0.50154067  0.45578068     0.12700
C385        C  0.23053312  0.50086969  0.44777697     0.62200
F386        F  0.35210016  0.61985986  0.05354386    -0.22900
F387        F  0.38094010  0.60510568  0.51960927    -0.20300
F388        F  0.35396725  0.57619597  0.07168837    -0.19900
F389        F  0.22811595  0.51981523  0.42068420    -0.20000
F390        F  0.20098394  0.48385366  0.96876468    -0.20300
F391        F  0.23277129  0.47640310  0.43003862    -0.23000
C392        C  0.91006150  0.53808028  0.13302214    -0.05800
C393        C  0.92299908  0.51807199  0.13195021     0.00100
C394        C  0.91826902  0.49872631  0.09959309    -0.08500
C395        C  0.90128511  0.50093539  0.06917698    -0.05900
C396        C  0.88955744  0.52204651  0.06958084     0.00100
C397        C  0.89333780  0.54054958  0.10239402    -0.08400
C398        C  0.88126337  0.56386257  0.10505516     0.62000
H399        H  0.91378849  0.55241697  0.15816957     0.12700
H400        H  0.89749344  0.48638018  0.04420391     0.12700
C401        C  0.93180295  0.47670193  0.09600669     0.62200
F402        F  0.89016693  0.58126484  0.13865002    -0.22900
F403        F  0.84596774  0.54457374  0.10188749    -0.20300
F404        F  0.89595015  0.58806074  0.07722879    -0.19900
F405        F  0.91207024  0.44749300  0.11705276    -0.20000
F406        F  0.96567225  0.49489036  0.10746851    -0.20300
F407        F  0.93038183  0.46627147  0.05972886    -0.23000
C408        C  0.94683682  0.54419200  0.39716932    -0.05800
C409        C  0.92514083  0.52127186  0.36923627     0.00100
C410        C  0.88917949  0.50159025  0.37364302    -0.08500
C411        C  0.87607067  0.50563701  0.40651900    -0.05900
C412        C  0.89783333  0.52820648  0.43474434     0.00100
C413        C  0.93387297  0.54798469  0.43017624    -0.08400
C414        C  0.95863659  0.57385000  0.45919507     0.62000
H415        H  0.97426184  0.55925718  0.39276937     0.12700
H416        H  0.84864025  0.49080722  0.41073205     0.12700
C417        C  0.86483669  0.47714229  0.34359314     0.62200
F418        F  0.99199109  0.59367322  0.44637122    -0.22900
F419        F  0.95820877  0.55702406  0.99047753    -0.20300
F420        F  0.94944606  0.59568502  0.46859774    -0.19900
F421        F  0.86858163  0.45066502  0.33914492    -0.20000
F422        F  0.87188277  0.49441299  0.31044987    -0.20300
F423        F  0.83094390  0.46293389  0.35232329    -0.23000
C424        C  0.95587045  0.40222649  0.12401396    -0.05800
C425        C  0.99149690  0.42299841  0.13066976     0.00100
C426        C  0.01328504  0.42129631  0.10507905    -0.08500
C427        C  0.99823256  0.39936417  0.07395237    -0.05900
C428        C  0.96277599  0.37902428  0.06765020     0.00100
C429        C  0.94105304  0.38046694  0.09299349    -0.08400
C430        C  0.90247533  0.36020935  0.08698553     0.62000
H431        H  0.93921391  0.40311721  0.14349377     0.12700
H432        H  0.01413254  0.39770580  0.05398512     0.12700
C433        C  0.05195283  0.44177011  0.10964578     0.62200
F434        F  0.88717916  0.36936664  0.11219211    -0.22900
F435        F  0.88779453  0.32556443  0.09116165    -0.20300
F436        F  0.89538979  0.36617256  0.05182030    -0.19900
F437        F  0.05973975  0.43021764  0.14040058    -0.20000
F438        F  0.06587097  0.47636486  0.11310706    -0.20300
F439        F  0.06742594  0.43798864  0.07946054    -0.23000
C440        C  0.94047327  0.37311679  0.40616429    -0.05800
C441        C  0.96489511  0.37824524  0.43223375     0.00100
C442        C  0.00017798  0.40271138  0.42512561    -0.08500
C443        C  0.00957896  0.42288847  0.39311457    -0.05900
C444        C  0.98500174  0.41918650  0.36806528     0.00100
C445        C  0.94968475  0.39305885  0.37411798    -0.08400
C446        C  0.92133393  0.38611917  0.34774876     0.62000
H447        H  0.91361645  0.35422696  0.41201600     0.12700
H448        H  0.03639630  0.44263959  0.38827537     0.12700
C449        C  0.02793107  0.40763681  0.45090181     0.62200
F450        F  0.88990863  0.35645816  0.35667657    -0.22900
F451        F  0.92875901  0.38217110  0.31185165    -0.20300
F452        F  0.91792539  0.41297907  0.34955356    -0.19900
F453        F  0.02064129  0.37611182  0.46094185    -0.20000
F454        F  0.03000344  0.42549936  0.48231048    -0.20300
F455        F  0.05970936  0.42595392  0.43407411    -0.23000
C456        C  0.15611111  0.54126587  0.13069578    -0.05800
C457        C  0.15731756  0.57118787  0.13726435     0.00100
C458        C  0.17619927  0.59922140  0.11228984    -0.08500
C459        C  0.19098257  0.59501074  0.08099120    -0.05900
C460        C  0.18831478  0.56467378  0.07415891     0.00100
C461        C  0.17113395  0.53742704  0.09948117    -0.08400
C462        C  0.16733537  0.50391231  0.09266569     0.62000
H463        H  0.14247703  0.52015790  0.14988948     0.12700
H464        H  0.20439924  0.61531796  0.06079009     0.12700
C465        C  0.18110845  0.63341665  0.11746954     0.62200
F466        F  0.14811096  0.47999744  0.11988837    -0.22900
F467        F  0.19931764  0.50987986  0.09235198    -0.20300
F468        F  0.15119418  0.48994948  0.05890738    -0.19900
F469        F  0.19899486  0.64870068  0.15008102    -0.20000
F470        F  0.14964669  0.62862790  0.11783384    -0.20300
F471        F  0.19994930  0.65606232  0.08911743    -0.23000
C472        C  0.19916191  0.58434356  0.41139804    -0.05800
C473        C  0.17789381  0.56230501  0.43976221     0.00100
C474        C  0.14175330  0.54251130  0.43545038    -0.08500
C475        C  0.12821882  0.54620488  0.40281860    -0.05900
C476        C  0.14945921  0.56856639  0.37482846     0.00100
C477        C  0.18546866  0.58779939  0.37864426    -0.08400
C478        C  0.20919985  0.61104751  0.34802223     0.62000
H479        H  0.22669195  0.59902199  0.41524866     0.12700
H480        H  0.10071192  0.53122772  0.39855871     0.12700
C481        C  0.11748161  0.51623484  0.46391990     0.62200
F482        F  0.24300077  0.62353986  0.35542168    -0.22900
F483        F  0.20718804  0.63869114  0.34447766    -0.20300
F484        F  0.19993102  0.59316497  0.31474721    -0.19900
F485        F  0.11879160  0.53248322  0.99640243    -0.20000
F486        F  0.12650605  0.49392846  0.47118130    -0.20300
F487        F  0.08382930  0.49697886  0.45146290    -0.23000
C488        C  0.08822259  0.67174644  0.06652514    -0.05800
C489        C  0.10854286  0.70784783  0.07012532     0.00100
C490        C  0.11702842  0.72273654  0.10644818    -0.08500
C491        C  0.10688339  0.70096850  0.13721537    -0.05900
C492        C  0.08724960  0.66534745  0.13305766     0.00100
C493        C  0.07684450  0.65020187  0.09751924    -0.08400
C494        C  0.05395532  0.61142720  0.09257132     0.62000
H495        H  0.08129929  0.66024936  0.03913338     0.12700
H496        H  0.11391734  0.71158727  0.16504130     0.12700
C497        C  0.13559034  0.76103164  0.11353887     0.62200
F498        F  0.04812968  0.60178733  0.05555000    -0.22900
F499        F  0.02256246  0.59827794  0.10890175    -0.20300
F500        F  0.06907835  0.59704578  0.10903369    -0.19900
F501        F  0.12019158  0.77336016  0.09333122    -0.20000
F502        F  0.16967081  0.77824001  0.10382173    -0.20300
F503        F  0.13453962  0.76823115  0.15055545    -0.23000
C504        C  0.06177576  0.66630376  0.39386195    -0.05800
C505        C  0.08717047  0.67144176  0.36933459     0.00100
C506        C  0.12172388  0.69970859  0.37537993    -0.08500
C507        C  0.13004379  0.71876035  0.40831239    -0.05900
C508        C  0.10502348  0.71193777  0.43419687     0.00100
C509        C  0.07002871  0.68688108  0.42575998    -0.08400
C510        C  0.04155811  0.68322525  0.44885807     0.62000
H511        H  0.03528281  0.64564855  0.38826672     0.12700
H512        H  0.15665745  0.73869501  0.41456714     0.12700
C513        C  0.14984896  0.71076316  0.34719002     0.62200
F514        F  0.00991481  0.66210410  0.43162196    -0.22900
F515        F  0.04766276  0.71512095  0.45378535    -0.20300
F516        F  0.03986063  0.66939165  0.48303114    -0.19900
F517        F  0.13880610  0.71268802  0.31237882    -0.20000
F518        F  0.15855760  0.68768575  0.34648982    -0.20300
F519        F  0.17921581  0.74284491  0.35560934    -0.23000
C520        C  0.82718155  0.22113092  0.51748007    -0.05800
C521        C  0.80263639  0.22264065  0.99785929     0.00100
C522        C  0.81306689  0.25236303  0.97708566    -0.08500
C523        C  0.84786458  0.27978801  0.97733907    -0.05900
C524        C  0.87219546  0.27866775  0.99780124     0.00100
C525        C  0.86207924  0.24875596  0.51762490    -0.08400
C526        C  0.88805136  0.24587528  0.53825831     0.62000
H527        H  0.81871173  0.19817342  0.53303043     0.12700
H528        H  0.85631687  0.30300342  0.96231728     0.12700
C529        C  0.78766321  0.25610402  0.95614917     0.62200
F530        F  0.87381309  0.21275617  0.05035448    -0.22900
F531        F  0.90029726  0.26743239  0.06894227    -0.20300
F532        F  0.91510137  0.25496349  0.51515798    -0.19900
F533        F  0.80298150  0.28889832  0.94239442    -0.20000
F534        F  0.76162632  0.24944293  0.47954560    -0.20300
F535        F  0.77395247  0.23354733  0.42633645    -0.23000
C536        C  0.53385269  0.28863207  0.48253881    -0.05800
C537        C  0.51253463  0.25923959  0.00389407     0.00100
C538        C  0.48395026  0.25454702  0.02224502    -0.08500
C539        C  0.47744291  0.27959640  0.01801687    -0.05900
C540        C  0.49861660  0.30891770  0.99645902     0.00100
C541        C  0.52780736  0.31404562  0.47892189    -0.08400
C542        C  0.55332920  0.34665337  0.45787186     0.62000
H543        H  0.55558166  0.29161521  0.46888529     0.12700
H544        H  0.45574000  0.27659592  0.03176370     0.12700
C545        C  0.46014082  0.22316416  0.04573236     0.62200
F546        F  0.58199489  0.34797376  0.44756470    -0.22900
F547        F  0.56423447  0.37503493  0.98003521    -0.20300
F548        F  0.53826430  0.34830851  0.42594426    -0.19900
F549        F  0.47727206  0.22430888  0.07731665    -0.20000
F550        F  0.44905223  0.19358154  0.52579706    -0.20300
F551        F  0.43149198  0.22157542  0.05671062    -0.23000
C552        C  0.67766820  0.10810004  0.07766824    -0.05800
C553        C  0.70069818  0.14373942  0.07372036     0.00100
C554        C  0.70219902  0.16596092  0.10107146    -0.08500
C555        C  0.68002850  0.15140708  0.13151934    -0.05900
C556        C  0.65626518  0.11571909  0.13498831     0.00100
C557        C  0.65510598  0.09351947  0.10772945    -0.08400
C558        C  0.62932710  0.05479134  0.10915360     0.62000
H559        H  0.67681091  0.09170093  0.05612257     0.12700
H560        H  0.68075782  0.16798203  0.15270161     0.12700
C561        C  0.72576570  0.20474720  0.09731546     0.62200
F562        F  0.62972581  0.03881489  0.07718131    -0.22900
F563        F  0.59652997  0.04648672  0.11305352    -0.20300
F564        F  0.63705473  0.04195722  0.13869794    -0.19900
F565        F  0.71977908  0.21446791  0.06377281    -0.20000
F566        F  0.75955047  0.21556522  0.09912125    -0.20300
F567        F  0.72067266  0.22135450  0.12526373    -0.23000
C568        C  0.69784891  0.12547640  0.41253346    -0.05800
C569        C  0.69085067  0.14174459  0.43952708     0.00100
C570        C  0.66448895  0.14645728  0.43375665    -0.08500
C571        C  0.64620595  0.13504531  0.40017294    -0.05900
C572        C  0.65278152  0.11826860  0.37319822     0.00100
C573        C  0.67882467  0.11301508  0.37942018    -0.08400
C574        C  0.68729018  0.09525813  0.35111917     0.62000
H575        H  0.71820841  0.12229122  0.41792552     0.12700
H576        H  0.62607561  0.13857860  0.39504991     0.12700
C577        C  0.65587182  0.16364453  0.46270055     0.62200
F578        F  0.71608178  0.09665875  0.36123193    -0.22900
F579        F  0.69356648  0.11096585  0.31704062    -0.20300
F580        F  0.66025492  0.06104518  0.34795214    -0.19900
F581        F  0.68514522  0.19502988  0.47304571    -0.20000
F582        F  0.64201888  0.14292179  0.99354377    -0.20300
F583        F  0.63224708  0.16929407  0.44950023    -0.23000
C584        C  0.51029452  0.14243034  0.06720420    -0.05800
C585        C  0.52791852  0.17827002  0.06925483     0.00100
C586        C  0.54572113  0.19607437  0.10218291    -0.08500
C587        C  0.54430381  0.17693946  0.13250586    -0.05900
C588        C  0.52584576  0.14111919  0.13060391     0.00100
C589        C  0.50910303  0.12338573  0.09733736    -0.08400
C590        C  0.49108668  0.08483553  0.09302035     0.62000
H591        H  0.49711069  0.12928511  0.04166099     0.12700
H592        H  0.55728005  0.18977814  0.15824034     0.12700
C593        C  0.56684311  0.23492438  0.10514552     0.62200
F594        F  0.48311701  0.07438880  0.05630807    -0.22900
F595        F  0.46087097  0.06751752  0.11271796    -0.20300
F596        F  0.51203007  0.07559278  0.10587518    -0.19900
F597        F  0.54539951  0.24563344  0.10528573    -0.20000
F598        F  0.58901039  0.24945717  0.07548538    -0.20300
F599        F  0.58631209  0.24689051  0.13739646    -0.23000
C600        C  0.53070033  0.15228524  0.43671600    -0.05800
C601        C  0.53155152  0.18235827  0.43423286     0.00100
C602        C  0.53356252  0.19611745  0.39844499    -0.08500
C603        C  0.53365968  0.17855830  0.36704330    -0.05900
C604        C  0.53195460  0.14844921  0.37025323     0.00100
C605        C  0.53095303  0.13514451  0.40528650    -0.08400
C606        C  0.53026664  0.10300183  0.40926437     0.62000
H607        H  0.52929312  0.14162049  0.46359895     0.12700
H608        H  0.53444780  0.18782110  0.33943061     0.12700
C609        C  0.53558382  0.22882278  0.39253770     0.62200
F610        F  0.53032074  0.09482664  0.44603755    -0.22900
F611        F  0.55880488  0.10797479  0.39250517    -0.20300
F612        F  0.50111936  0.07543333  0.39248933    -0.19900
F613        F  0.56290087  0.25559018  0.41246114    -0.20000
F614        F  0.50534084  0.22394434  0.40355860    -0.20300
F615        F  0.54048910  0.23837770  0.35564288    -0.23000
C616        C  0.22027558  0.81660960  0.52671211    -0.05800
C617        C  0.19468852  0.81299291  0.00356013     0.00100
C618        C  0.20228514  0.84081489  0.98092868    -0.08500
C619        C  0.23541357  0.87155768  0.98284124    -0.05900
C620        C  0.26100851  0.87496809  0.00580101     0.00100
C621        C  0.25362344  0.84677976  0.52769349    -0.08400
C622        C  0.28105967  0.84731527  0.55007252     0.62000
H623        H  0.21422669  0.79488541  0.54321214     0.12700
H624        H  0.24181151  0.89320448  0.96594735     0.12700
C625        C  0.17578159  0.83843217  0.95508851     0.62200
F626        F  0.26920501  0.81531738  0.06402557    -0.22900
F627        F  0.29163296  0.86969525  0.07979881    -0.20300
F628        F  0.30879591  0.85734205  0.52768152    -0.19900
F629        F  0.14602827  0.82694992  0.97434298    -0.20000
F630        F  0.16864920  0.81606877  0.42619950    -0.20300
F631        F  0.18724097  0.86994502  0.43995111    -0.23000
C632        C  0.39827552  0.96336800  0.06752081    -0.05800
C633        C  0.36757550  0.96087368  0.06935687     0.00100
C634        C  0.35716865  0.96697377  0.10337717    -0.08500
C635        C  0.37759813  0.97425248  0.13497820    -0.05900
C636        C  0.40725040  0.97483311  0.13345645     0.00100
C637        C  0.41833505  0.97011652  0.09919028    -0.08400
C638        C  0.45058035  0.97126657  0.09618088     0.62000
H639        H  0.40573964  0.95855727  0.04121813     0.12700
H640        H  0.37025194  0.97898480  0.16141264     0.12700
C641        C  0.32522811  0.96658336  0.10626706     0.62200
F642        F  0.45853613  0.96944834  0.05975410    -0.22900
F643        F  0.44540057  0.94350874  0.11471383    -0.20300
F644        F  0.47815347  0.00131464  0.11170850    -0.19900
F645        F  0.29631967  0.93337378  0.10252553    -0.20000
F646        F  0.32528362  0.98673730  0.07875930    -0.20300
F647        F  0.32350477  0.97928812  0.14015162    -0.23000
C648        C  0.41104104  0.00281043  0.39721468    -0.05800
C649        C  0.40280336  0.97736157  0.37088822     0.00100
C650        C  0.37182170  0.94430255  0.37422964    -0.08500
C651        C  0.35228100  0.93672925  0.40642497    -0.05900
C652        C  0.36210962  0.96138584  0.43447064     0.00100
C653        C  0.39086218  0.99565924  0.42875242    -0.08400
C654        C  0.40091758  0.02486094  0.45546433     0.62000
H655        H  0.43400606  0.02842253  0.39335870     0.12700
H656        H  0.32988601  0.91081856  0.41050103     0.12700
C657        C  0.35884791  0.91706517  0.34412462     0.62200
F658        F  0.42020775  0.05628539  0.43786482    -0.22900
F659        F  0.42026656  0.02517179  0.48430034    -0.20300
F660        F  0.37209456  0.02133570  0.46948129    -0.19900
F661        F  0.37662783  0.90230305  0.34573436    -0.20000
F662        F  0.36290849  0.93134891  0.30954327    -0.20300
F663        F  0.32432508  0.89134078  0.34834633    -0.23000
C664        C  0.54379464  0.78031521  0.01394342    -0.05800
C665        C  0.57442560  0.79025360  0.49647953     0.00100
C666        C  0.59611550  0.82364836  0.48175066    -0.08500
C667        C  0.58571663  0.84582251  0.48409569    -0.05900
C668        C  0.55523969  0.83597963  0.00179698     0.00100
C669        C  0.53369531  0.80270166  0.01691991    -0.08400
C670        C  0.49981551  0.79049806  0.03507291     0.62000
H671        H  0.52774221  0.75466968  0.02517500     0.12700
H672        H  0.60180689  0.87151327  0.47299860     0.12700
C673        C  0.63091870  0.83654651  0.46577941     0.62200
F674        F  0.48104279  0.75593736  0.54353165    -0.22900
F675        F  0.48024593  0.79544859  0.51120807    -0.20300
F676        F  0.50570164  0.80858804  0.06763520    -0.19900
F677        F  0.62721683  0.81694437  0.43534782    -0.20000
F678        F  0.65054753  0.83458027  0.99249364    -0.20300
F679        F  0.64836341  0.87034227  0.95450534    -0.23000
C680        C  0.55478842  0.91423362  0.10365510    -0.05800
C681        C  0.53222416  0.90798252  0.07454186     0.00100
C682        C  0.50598866  0.91289617  0.08048745    -0.08500
C683        C  0.50530548  0.92694184  0.11447419    -0.05900
C684        C  0.52933604  0.93549502  0.14253865     0.00100
C685        C  0.55305131  0.92691718  0.13818402    -0.08400
C686        C  0.57615479  0.92986405  0.16926407     0.62000
H687        H  0.57404904  0.90931802  0.09931932     0.12700
H688        H  0.48710896  0.93279320  0.11872241     0.12700
C689        C  0.47875728  0.90354025  0.05134123     0.62200
F690        F  0.57857853  0.90229666  0.16783599    -0.22900
F691        F  0.56356590  0.92959613  0.20385662    -0.20300
F692        F  0.60856055  0.95980086  0.16531477    -0.19900
F693        F  0.46586146  0.87138264  0.03658395    -0.20000
F694        F  0.49268305  0.92759388  0.02336892    -0.20300
F695        F  0.45152601  0.90255404  0.06619275    -0.23000
C696        C  0.52140449  0.91576486  0.37486421    -0.05800
C697        C  0.53433223  0.95052092  0.37748833     0.00100
C698        C  0.54803403  0.96847480  0.41136947    -0.08500
C699        C  0.54916542  0.95086192  0.44173398    -0.05900
C700        C  0.53731312  0.91618107  0.43911629     0.00100
C701        C  0.52285043  0.89808748  0.40508721    -0.08400
C702        C  0.50862745  0.86039654  0.40034135     0.62000
H703        H  0.51096791  0.90282209  0.34845525     0.12700
H704        H  0.55996011  0.96440174  0.46777565     0.12700
C705        C  0.56076046  0.00583716  0.41563471     0.62200
F706        F  0.49191674  0.84732406  0.36661474    -0.22900
F707        F  0.48531203  0.84134167  0.42804889    -0.20300
F708        F  0.53509584  0.85639264  0.40172266    -0.19900
F709        F  0.53584673  0.00998279  0.40340984    -0.20000
F710        F  0.59016689  0.02654224  0.39514972    -0.20300
F711        F  0.56840229  0.01683114  0.45219748    -0.23000
C712        C  0.54702195  0.86134399  0.50363721     0.80200
N713        N  0.54556664  0.87576872  0.97197390    -0.78100
C714        C  0.53909858  0.89998413  0.97327262     0.82600
N715        N  0.53511571  0.91032003  0.00671382    -0.78100
C716        C  0.53666515  0.89626916  0.53850903     0.82700
N717        N  0.54294516  0.87192243  0.53692122    -0.79800
C718        C  0.29558006  0.90747496  0.50460981     0.80200
N719        N  0.31072302  0.92138357  0.97147579    -0.78100
C720        C  0.34379706  0.94947199  0.97023169     0.82600
N721        N  0.36165273  0.96288140  0.50237463    -0.78100
C722        C  0.34650641  0.94974085  0.53549460     0.82700
N723        N  0.31360993  0.92193354  0.53637348    -0.79800
C724        C  0.53407708  0.96761461  0.84395816     0.42400
N725        N  0.51681823  0.98049464  0.79664843     0.01300
C726        C  0.61816842  0.12057717  0.68331487    -0.06600
H727        H  0.62228519  0.14820256  0.82659177     0.06800
C728        C  0.49913544  0.10136372  0.81950890    -0.06900
Co729      Co  0.57594705  0.03712966  0.75376284     0.74200
N730        N  0.60013106  0.10311419  0.79179212    -0.26100
Co731      Co  0.57211561  0.10736442  0.75102662     0.74100
C732        C  0.52999079  0.13064768  0.83633017     0.42500
N733        N  0.45909512  0.01690359  0.79433121     0.00900
N734        N  0.54444593  0.11304775  0.79093911     0.01000
N735        N  0.62003609  0.07424770  0.68560829    -0.47000
H736        H  0.59072037  0.00724290  0.82972073     0.06800
N737        N  0.60163577  0.07637201  0.79263288     0.01300
N738        N  0.54262951  0.10961037  0.71037179     0.01000
C739        C  0.52556916  0.12329612  0.66366217     0.42600
N740        N  0.46009098  0.98983075  0.79537024    -0.25600
C741        C  0.56108520  0.98694729  0.68975104    -0.06500
N742        N  0.50572338  0.95945122  0.82528708    -0.46700
N743        N  0.55382390  0.13100961  0.68212731    -0.46900
C744        C  0.53067981  0.95614209  0.67400974     0.42400
N745        N  0.60036138  0.07342944  0.71200068     0.01300
N746        N  0.45924458  0.98722212  0.71474122    -0.25600
N747        N  0.55058490  0.00136721  0.79544431    -0.26100
N748        N  0.45803298  0.01418271  0.71413221     0.00900
H749        H  0.43579651  0.94179713  0.68052267     0.06800
H750        H  0.46881765  0.08394340  0.67817840     0.06900
N751        N  0.59896775  0.10026672  0.71130665    -0.26100
N752        N  0.51069144  0.09214368  0.79164563    -0.25700
N753        N  0.51525908  0.97660971  0.71585267     0.01300
C754        C  0.63226295  0.10723548  0.83882141     0.42700
C755        C  0.44038006  0.96972796  0.82336040    -0.07000
N756        N  0.50890283  0.08892005  0.71158924    -0.25700
H757        H  0.47260340  0.08910481  0.82695700     0.06800
N758        N  0.62044262  0.07773389  0.82045418    -0.47000
H759        H  0.43632809  0.94578067  0.83098889     0.06800
C760        C  0.42768396  0.98414248  0.66761307     0.42500
C761        C  0.56376879  0.99479808  0.82403602    -0.06500
Co762      Co  0.48721136  0.98259118  0.75567574     0.73800
N763        N  0.43935691  0.01655328  0.82021269    -0.46700
C764        C  0.63190735  0.10313412  0.66617070     0.42800
N765        N  0.50310679  0.95149855  0.69102377    -0.46700
Co766      Co  0.48366910  0.05310968  0.75301714     0.73900
C767        C  0.49577652  0.09595834  0.68337364    -0.07000
C768        C  0.61866003  0.12412342  0.82011626    -0.06600
N769        N  0.54902985  0.99758253  0.71552544    -0.26100
N770        N  0.55721237  0.13661766  0.81752243    -0.46900
H771        H  0.62238539  0.14476575  0.67631678     0.06800
C772        C  0.44034491  0.96635422  0.68644579    -0.07000
Cl773      Cl  0.52972073  0.04500073  0.75332728    -0.50000
C774        C  0.42637773  0.98743055  0.83940548     0.42600
H775        H  0.58779617  0.99864137  0.68392049     0.06800
N776        N  0.43934000  0.01329520  0.68650786    -0.46700
C777        C  0.51979603  0.23310620  0.50393055     0.80200
N778        N  0.52358379  0.22167332  0.97107640    -0.78100
C779        C  0.52982311  0.19733836  0.96988659     0.82600
N780        N  0.53213195  0.18454470  0.00229618    -0.78100
C781        C  0.52850505  0.19564472  0.53531805     0.82700
N782        N  0.52213976  0.21993113  0.53612432    -0.79800
C783        C  0.76624788  0.19349571  0.50092938     0.80200
N784        N  0.74644657  0.17974334  0.97006551    -0.78100
C785        C  0.71252379  0.15472974  0.97284867     0.82600
N786        N  0.69842998  0.14296224  0.50651181    -0.78100
C787        C  0.71789953  0.15619082  0.53762979     0.82700
N788        N  0.75192888  0.18153673  0.53486545    -0.79800
C789        C  0.07652177  0.64711891  0.83776112     0.42400
N790        N  0.07829526  0.61782353  0.79369151     0.01300
C791        C  0.94449325  0.49425305  0.68255959    -0.06600
H792        H  0.92839904  0.46785027  0.82415959     0.06800
C793        C  0.03161498  0.46354980  0.82012999    -0.06900
Co794      Co  0.01247248  0.57657280  0.75125121     0.74200
N795        N  0.96551407  0.51033505  0.79013678    -0.26100
Co796      Co  0.98189237  0.49086387  0.75043059     0.74100
C797        C  0.99729042  0.44315450  0.83637411     0.42500
N798        N  0.09831479  0.54670107  0.79420728     0.00900
N799        N  0.99772400  0.47237118  0.79115928     0.01000
N800        N  0.96542454  0.55059039  0.68287252    -0.47000
H801        H  0.01998374  0.62508376  0.82483771     0.06800
N802        N  0.97752892  0.54313356  0.79029753     0.01300
N803        N  0.99972404  0.47299847  0.71031764     0.01000
C804        C  0.00310963  0.44631825  0.66380809     0.42600
N805        N  0.11028862  0.57950411  0.79464792    -0.25600
C806        C  0.04418111  0.62480833  0.68387998    -0.06500
N807        N  0.09693596  0.64031023  0.82029165    -0.46700
N808        N  0.98210757  0.45206029  0.68223506    -0.46900
C809        C  0.07763047  0.64455682  0.66659400     0.42400
N810        N  0.97901284  0.54328823  0.70986385     0.01300
N811        N  0.11181200  0.58012673  0.71446824    -0.25600
N812        N  0.04662707  0.60920240  0.79259259    -0.26100
N813        N  0.10008452  0.54749606  0.71385118     0.00900
H814        H  0.14907784  0.62359124  0.68355521     0.06800
H815        H  0.05947587  0.46828857  0.67989761     0.06900
N816        N  0.96727023  0.51060820  0.71007271    -0.26100
N817        N  0.02924104  0.48063759  0.79225184    -0.25700
N818        N  0.07978222  0.61826521  0.71298352     0.01300
C819        C  0.94143896  0.52191248  0.83450338     0.42700
C820        C  0.13224701  0.59494704  0.82320471    -0.07000
N821        N  0.03128878  0.48156627  0.71176640    -0.25700
H822        H  0.05421242  0.46457982  0.82726757     0.06800
N823        N  0.96413966  0.55120646  0.81663569    -0.47000
H824        H  0.14609659  0.62177786  0.83067026     0.06800
C825        C  0.13671128  0.56977124  0.66933962     0.42500
C826        C  0.04289681  0.62619386  0.81964910    -0.06500
Co827      Co  0.09576211  0.59964835  0.75401313     0.73800
N828        N  0.11080245  0.53839781  0.82133903    -0.46700
C829        C  0.94380403  0.52097903  0.66405615     0.42800
N830        N  0.09863590  0.63961392  0.68599098    -0.46700
Co831      Co  0.06507272  0.51371435  0.75307362     0.73900
C832        C  0.03592644  0.46593169  0.68399389    -0.07000
C833        C  0.94249029  0.49469082  0.81741818    -0.06600
N834        N  0.04794581  0.60924795  0.71221839    -0.26100
N835        N  0.97799033  0.45029859  0.81704225    -0.46900
H836        H  0.92956539  0.46693684  0.67779152     0.06800
C837        C  0.13510028  0.59641527  0.68774429    -0.07000
Cl838      Cl  0.03879938  0.54521077  0.75225409    -0.50000
C839        C  0.13263286  0.56756485  0.84039220     0.42600
H840        H  0.02099973  0.62260647  0.67652226     0.06800
N841        N  0.11421025  0.54028346  0.68749906    -0.46700
C842        C  0.23505996  0.55332721  0.50020448     0.80200
N843        N  0.22498985  0.55623376  0.53443550    -0.78100
C844        C  0.19967713  0.56100016  0.53778748     0.82600
N845        N  0.18480763  0.56324312  0.50703641    -0.78100
C846        C  0.19438482  0.56003358  0.97296889     0.82700
N847        N  0.21990071  0.55562581  0.96961515    -0.79800
C848        C  0.90730662  0.31025610  0.49890505     0.80200
N849        N  0.92099218  0.32679664  0.53167458    -0.78100
C850        C  0.94991366  0.35926377  0.53250769     0.82600
N851        N  0.96512837  0.37517160  0.50018849    -0.78100
C852        C  0.95185674  0.35886661  0.96724358     0.82700
N853        N  0.92251805  0.32664124  0.96682086    -0.79800
C854        C  0.84204640  0.53619088  0.49854290     0.80200
N855        N  0.85710934  0.53552777  0.96696504    -0.78100
C856        C  0.88197097  0.53001249  0.96873721     0.82600
N857        N  0.89159960  0.52522670  0.50202572    -0.78100
C858        C  0.87714410  0.52630812  0.53378017     0.82700
N859        N  0.85223700  0.53173082  0.53185353    -0.79800
C860        C  0.16112783  0.77910673  0.50329803     0.80200
N861        N  0.14560076  0.76339864  0.97076012    -0.78100
C862        C  0.11728051  0.73054944  0.97002759     0.82600
N863        N  0.10510124  0.71311987  0.50234180    -0.78100
C864        C  0.12036201  0.72837480  0.53532237     0.82700
N865        N  0.14870611  0.76116936  0.53526760    -0.79800
C866        C  0.63232973  0.57177795  0.65127875     0.42400
N867        N  0.61308752  0.58189461  0.69938286     0.01300
C868        C  0.48785752  0.46196577  0.81779247    -0.06600
H869        H  0.45177298  0.44264989  0.67649254     0.06800
C870        C  0.46981108  0.55930546  0.68091551    -0.06900
Co871      Co  0.56749976  0.51814419  0.74341672     0.74200
N872        N  0.49835365  0.47731572  0.70756795    -0.26100
Co873      Co  0.48605234  0.49944517  0.74814037     0.74100
C874        C  0.44601922  0.52633163  0.66331200     0.42500
N875        N  0.55405265  0.61646404  0.70391731     0.00900
N876        N  0.47061521  0.51945269  0.70815486     0.01000
N877        N  0.54129738  0.47473760  0.81376670    -0.47000
H878        H  0.60282794  0.51436642  0.66538111     0.06800
N879        N  0.52936762  0.48435513  0.70591136     0.01300
N880        N  0.47476091  0.52240523  0.78878207     0.01000
C881        C  0.45335903  0.53174530  0.83475430     0.42600
N882        N  0.58529681  0.62414069  0.70193759    -0.25600
C883        C  0.62168897  0.54642299  0.80622434    -0.06500
N884        N  0.63333043  0.59681128  0.67037733    -0.46700
N885        N  0.45330472  0.50691073  0.81671778    -0.46900
C886        C  0.64767333  0.58011941  0.82160881     0.42400
N887        N  0.53480739  0.48873004  0.78646961     0.01300
N888        N  0.58981523  0.62658415  0.78261651    -0.25600
N889        N  0.59925990  0.54867436  0.70060498    -0.26100
N890        N  0.55848073  0.61881874  0.78412413     0.00900
H891        H  0.63537750  0.66055447  0.81507528     0.06800
H892        H  0.48222040  0.58907208  0.82156509     0.06900
N893        N  0.50369069  0.48153471  0.78809653    -0.26100
N894        N  0.48410391  0.55262311  0.70807517    -0.25700
N895        N  0.61905669  0.58555432  0.78007117     0.01300
C896        C  0.50116905  0.44665088  0.66320288     0.42700
C897        C  0.60146330  0.64574232  0.67361503    -0.07000
N898        N  0.48839949  0.55556129  0.78770662    -0.25700
H899        H  0.47559956  0.58415979  0.67420479     0.06800
N900        N  0.53217479  0.46666569  0.67967903    -0.47000
H901        H  0.62779081  0.65723455  0.66585823     0.06800
C902        C  0.58451428  0.65372613  0.82952310     0.42500
C903        C  0.60983698  0.53988971  0.67141652    -0.06500
Co904      Co  0.60273605  0.60534708  0.74096040     0.73800
N905        N  0.54768996  0.63181373  0.67828682    -0.46700
C906        C  0.51294461  0.45763260  0.83492680     0.42800
N907        N  0.64430247  0.60319971  0.80456562    -0.46700
Co908      Co  0.52108658  0.58621978  0.74595856     0.73900
C909        C  0.47623762  0.56387755  0.81573756    -0.07000
C910        C  0.47866903  0.45392556  0.68134058    -0.06600
N911        N  0.60549003  0.55238516  0.78059081    -0.26100
N912        N  0.44764155  0.50254036  0.68130261    -0.46900
H913        H  0.46200351  0.45201786  0.82620802     0.06800
C914        C  0.60847848  0.64887545  0.81019027    -0.07000
Cl915      Cl  0.54436792  0.55228508  0.74461708    -0.50000
C916        C  0.57635566  0.65094905  0.65810315     0.42600
H917        H  0.61654189  0.52173471  0.81236194     0.06800
N918        N  0.55432452  0.63454383  0.81145352    -0.46700
C919        C  0.49089942  0.33476230  0.99566135     0.80200
N920        N  0.48588062  0.34582736  0.52803492    -0.78100
C921        C  0.48125709  0.37141033  0.52847357     0.82600
N922        N  0.48204412  0.38604888  0.49600188    -0.78100
C923        C  0.48604967  0.37451856  0.96342655     0.82700
N924        N  0.49100543  0.34923276  0.96333826    -0.79800
C925        C  0.34364598  0.53394711  0.99668195     0.80200
N926        N  0.35474057  0.52935164  0.52933307    -0.78100
C927        C  0.37798928  0.52160263  0.52964269     0.82600
N928        N  0.39021967  0.51888709  0.99707752    -0.78100
C929        C  0.37962923  0.52351189  0.96430341     0.82700
N930        N  0.35622914  0.53109049  0.96417177    -0.79800
C931        C  0.74845544  0.57529265  0.99111145     0.80200
N932        N  0.73337101  0.57527876  0.52287469    -0.78100
C933        C  0.70852974  0.58080180  0.52213621     0.82600
N934        N  0.69896682  0.58661745  0.48916495    -0.78100
C935        C  0.71411491  0.58702426  0.95715021     0.82700
N936        N  0.73849424  0.58076424  0.95831792    -0.79800
C937        C  0.58267571  0.76487278  0.99489948     0.80200
N938        N  0.58425159  0.75091223  0.52683588    -0.78100
C939        C  0.58855804  0.72515957  0.52590407     0.82600
N940        N  0.58992150  0.71258865  0.49273068    -0.78100
C941        C  0.58797670  0.72597104  0.96047383     0.82700
N942        N  0.58437254  0.75222949  0.96177478    -0.79800
C943        C  0.43163774  0.53636236  0.93343173    -0.05800
C944        C  0.39684396  0.52388036  0.93006463     0.00100
C945        C  0.37998524  0.51131783  0.89521885    -0.08500
C946        C  0.39926735  0.51347015  0.86457893    -0.05900
C947        C  0.43407039  0.52698851  0.86819972     0.00100
C948        C  0.45049048  0.53772065  0.90303070    -0.08400
C949        C  0.48755130  0.54986276  0.90797368     0.62000
H950        H  0.44427540  0.54553547  0.96015204     0.12700
H951        H  0.38751817  0.50528006  0.83731955     0.12700
C952        C  0.34197879  0.49517642  0.89020135     0.62200
F953        F  0.49784912  0.55667192  0.94477917    -0.22900
F954        F  0.50900626  0.57954985  0.88809097    -0.20300
F955        F  0.49121209  0.52467911  0.89534867    -0.19900
F956        F  0.33588701  0.52017189  0.89278098    -0.20000
F957        F  0.32353364  0.47065129  0.91709624    -0.20300
F958        F  0.33011293  0.47919438  0.85592755    -0.23000
C959        C  0.42813456  0.53200655  0.56323397    -0.05800
C960        C  0.39340091  0.51994533  0.56454012     0.00100
C961        C  0.37504046  0.50628043  0.59814031    -0.08500
C962        C  0.39297006  0.50751258  0.62986007    -0.05900
C963        C  0.42785721  0.52100311  0.62845862     0.00100
C964        C  0.44564911  0.53241706  0.59463053    -0.08400
C965        C  0.48288214  0.54470573  0.59171064     0.62000
H966        H  0.44192069  0.54196479  0.53745259     0.12700
H967        H  0.38011850  0.49884250  0.65631993     0.12700
C968        C  0.33682355  0.48981870  0.60073495     0.62200
F969        F  0.49404332  0.55094690  0.55535350    -0.22900
F970        F  0.48646178  0.51989271  0.60553442    -0.20300
F971        F  0.50376602  0.57478929  0.61172114    -0.19900
F972        F  0.31972695  0.46646109  0.57203807    -0.20000
F973        F  0.33055718  0.51466597  0.59895113    -0.20300
F974        F  0.32349591  0.47243072  0.63375365    -0.23000
C975        C  0.57197651  0.69091122  0.86128715    -0.05800
C976        C  0.58952843  0.67530046  0.86192107     0.00100
C977        C  0.60696892  0.67713631  0.89458122    -0.08500
C978        C  0.60771158  0.69626314  0.92474142    -0.05900
C979        C  0.58925215  0.71096077  0.92478787     0.00100
C980        C  0.57060256  0.70794033  0.89243117    -0.08400
C981        C  0.54796760  0.72083536  0.89079394     0.62000
H982        H  0.55828243  0.68869281  0.83618499     0.12700
H983        H  0.62246648  0.69931975  0.94910896     0.12700
C984        C  0.62322488  0.65777136  0.89886931     0.62200
F985        F  0.52897359  0.71100468  0.85823078    -0.22900
F986        F  0.56797969  0.75626918  0.89259090    -0.20300
F987        F  0.52512086  0.70752089  0.91995058    -0.19900
F988        F  0.65309114  0.67383437  0.87864349    -0.20000
F989        F  0.60089134  0.62416464  0.88681353    -0.20300
F990        F  0.63126049  0.65680228  0.93555356    -0.23000
C991        C  0.56444934  0.70292288  0.58768081    -0.05800
C992        C  0.58820787  0.70867947  0.56067029     0.00100
C993        C  0.60976058  0.69766848  0.56706480    -0.08500
C994        C  0.60521624  0.67937070  0.59950424    -0.05900
C995        C  0.58026132  0.67204403  0.62577058     0.00100
C996        C  0.55986744  0.68469881  0.62020760    -0.08400
C997        C  0.53312009  0.67911925  0.64782367     0.62000
H998        H  0.54834717  0.71169119  0.58232609     0.12700
H999        H  0.62057805  0.66961565  0.60377074     0.12700
C1000       C  0.63675248  0.70382630  0.53962479     0.62200
F1001       F  0.52007999  0.69775377  0.63889628    -0.22900
F1002       F  0.54749581  0.68938743  0.68291804    -0.20300
F1003       F  0.50599657  0.64485679  0.64803265    -0.19900
F1004       F  0.65331418  0.73617391  0.52434458    -0.20000
F1005       F  0.62124079  0.67915826  0.51194664    -0.20300
F1006       F  0.66151408  0.70172346  0.55656768    -0.23000
C1007       C  0.67439197  0.60922826  0.88113657    -0.05800
C1008       C  0.67134030  0.58759848  0.85253835     0.00100
C1009       C  0.68741005  0.57040230  0.85637158    -0.08500
C1010       C  0.70108211  0.57098390  0.89099669    -0.05900
C1011       C  0.70166739  0.59032871  0.92086537     0.00100
C1012       C  0.69007041  0.61154498  0.91520858    -0.08400
C1013       C  0.69334535  0.63600166  0.94483310     0.62000
H1014       H  0.66269749  0.62291444  0.87743862     0.12700
H1015       H  0.71113514  0.55575439  0.89473590     0.12700
C1016       C  0.69107321  0.55150258  0.82486606     0.62200
F1017       F  0.69035239  0.66078263  0.92975374    -0.22900
F1018       F  0.72509478  0.65286410  0.96205863    -0.20300
F1019       F  0.66778156  0.61788967  0.47083614    -0.19900
F1020       F  0.68702573  0.56147578  0.79046195    -0.20000
F1021       F  0.66715525  0.51656455  0.82882534    -0.20300
F1022       F  0.72352070  0.55846168  0.82583623    -0.23900
C1023       C  0.66239783  0.55319758  0.61462572    -0.05800
C1024       C  0.65354374  0.57647059  0.61879272     0.00100
C1025       C  0.66395978  0.60202783  0.59160528    -0.08500
C1026       C  0.68250685  0.60284242  0.56087661    -0.05900
C1027       C  0.69088976  0.57921146  0.55655601     0.00100
C1028       C  0.68074606  0.55386697  0.58397374    -0.08400
C1029       C  0.68822080  0.52692312  0.58088182     0.62000
H1030       H  0.65502676  0.53431995  0.63597659     0.12700
H1031       H  0.69083242  0.62220770  0.53982545     0.12700
C1032       C  0.65510144  0.62786487  0.59423924     0.62200
F1033       F  0.67151600  0.50199796  0.60782692    -0.22900
F1034       F  0.72299827  0.54232554  0.08520387    -0.20300
F1035       F  0.67736772  0.51061067  0.54670730    -0.19900
F1036       F  0.67179888  0.64940714  0.62437355    -0.20000
F1037       F  0.62007025  0.61097326  0.59798189    -0.20300
F1038       F  0.66504027  0.64798468  0.56289020    -0.23000
C1039       C  0.47360050  0.40789063  0.87446437    -0.05800
C1040       C  0.50745196  0.43588703  0.86724926     0.00100
C1041       C  0.53434507  0.44258249  0.89138805    -0.08500
C1042       C  0.52595564  0.42137730  0.92231080    -0.05900
C1043       C  0.49214492  0.39409861  0.92959506     0.00100
C1044       C  0.46546939  0.38674957  0.90536472    -0.08400
C1045       C  0.42869182  0.35694067  0.91245261     0.62000
H1046       H  0.45334223  0.40255797  0.85566506     0.12700
H1047       H  0.54579394  0.42599325  0.94142423     0.12700
C1048       C  0.57159125  0.47204450  0.88541442     0.62200
F1049       F  0.40682581  0.35298822  0.88432575    -0.22900
F1050       F  0.41772482  0.36246571  0.94535844    -0.20300
F1051       F  0.42657434  0.32682596  0.91490479    -0.19900
F1052       F  0.57464762  0.50264521  0.88295267    -0.20000
F1053       F  0.58334764  0.46635848  0.85325348    -0.20300
F1054       F  0.59252679  0.47526016  0.91426112    -0.23000
C1055       C  0.47100509  0.42154872  0.60353967    -0.05800
C1056       C  0.49331083  0.42397806  0.63087636     0.00100
C1057       C  0.50792063  0.40538363  0.62640146    -0.08500
C1058       C  0.50199451  0.38744332  0.59305285    -0.05900
C1059       C  0.48185057  0.38716605  0.56434347     0.00100
C1060       C  0.46480315  0.40330004  0.57021389    -0.08400
C1061       C  0.44005303  0.40134547  0.54192135     0.62000
H1062       H  0.45948301  0.43533981  0.60777056     0.12700
H1063       H  0.51450562  0.37465149  0.58862423     0.12700
C1064       C  0.52937191  0.40394133  0.65659310     0.62200
F1065       F  0.42102788  0.41213447  0.55687131    -0.22900
F1066       F  0.41735377  0.36783127  0.52977945    -0.20300
F1067       F  0.45793550  0.42216081  0.01211718    -0.19900
F1068       F  0.51237380  0.39561636  0.69008351    -0.20000
F1069       F  0.56075315  0.43530516  0.65978294    -0.20300
F1070       F  0.53546774  0.37940453  0.64892179    -0.23000
C1071       C  0.76221025  0.53479719  0.00911887    -0.05800
C1072       C  0.77285937  0.56584097  0.49216255     0.00100
C1073       C  0.80616223  0.58699315  0.47718972    -0.08500
C1074       C  0.82788262  0.57610850  0.47974541    -0.05900
C1075       C  0.81727588  0.54512319  0.49681506     0.00100
C1076       C  0.78384451  0.52378820  0.01146682    -0.08400
C1077       C  0.77058625  0.48901946  0.02804106     0.62000
H1078       H  0.73650099  0.51895604  0.02011872     0.12700
H1079       H  0.85358853  0.59191834  0.46867820     0.12700
C1080       C  0.81903267  0.62126856  0.45961657     0.62200
F1081       F  0.73606050  0.47076764  0.03638750    -0.22900
F1082       F  0.78818486  0.49317381  0.06041551    -0.20300
F1083       F  0.77496109  0.46975156  0.00304064    -0.19900
F1084       F  0.81457147  0.64097890  0.48383733    -0.20000
F1085       F  0.80111776  0.61604444  0.42713883    -0.20300
F1086       F  0.85351457  0.63955362  0.45109369    -0.23000
C1087       C  0.29253326  0.57024288  0.51867871    -0.05800
C1088       C  0.26327167  0.54910631  0.49654856     0.00100
C1089       C  0.26146423  0.52435687  0.97260404    -0.08500
C1090       C  0.28873993  0.52079124  0.97307949    -0.05900
C1091       C  0.31734973  0.54104415  0.99635420     0.00100
C1092       C  0.32004378  0.56711987  0.51853876    -0.08400
C1093       C  0.35207605  0.59230903  0.54109316     0.62000
H1094       H  0.29367883  0.58938549  0.53623563     0.12700
H1095       H  0.28762596  0.50152866  0.95579604     0.12700
C1096       C  0.23052328  0.50084652  0.94778469     0.62200
F1097       F  0.35212871  0.61987085  0.55352854    -0.22900
F1098       F  0.38092262  0.60512229  0.01960098    -0.20300
F1099       F  0.35396013  0.57618931  0.57169274    -0.19900
F1100       F  0.22809978  0.51978905  0.92069336    -0.20000
F1101       F  0.20099441  0.48388539  0.46875809    -0.20300
F1102       F  0.23277104  0.47638717  0.93004346    -0.23000
C1103       C  0.91005386  0.53805928  0.63301724    -0.05800
C1104       C  0.92299338  0.51805287  0.63194299     0.00100
C1105       C  0.91826707  0.49871097  0.59958405    -0.08500
C1106       C  0.90128082  0.50091851  0.56916937    -0.05900
C1107       C  0.88955008  0.52202701  0.56957610     0.00100
C1108       C  0.89333042  0.54052937  0.60238978    -0.08400
C1109       C  0.88125683  0.56384309  0.60505183     0.62000
H1110       H  0.91377938  0.55239403  0.65816572     0.12700
H1111       H  0.89749101  0.48636553  0.54419501     0.12700
C1112       C  0.93180976  0.47669456  0.59599394     0.62200
F1113       F  0.89016402  0.58124768  0.63864541    -0.22900
F1114       F  0.84596096  0.54455448  0.60188811    -0.20300
F1115       F  0.89594118  0.58803956  0.57722362    -0.19900
F1116       F  0.91208128  0.44748207  0.61703576    -0.20000
F1117       F  0.96567875  0.49488843  0.60745827    -0.20300
F1118       F  0.93039380  0.46627040  0.55971441    -0.23000
C1119       C  0.94682894  0.54418942  0.89716321    -0.05800
C1120       C  0.92513136  0.52125166  0.86924175     0.00100
C1121       C  0.88917041  0.50155815  0.87366055    -0.08500
C1122       C  0.87606443  0.50561362  0.90653397    -0.05900
C1123       C  0.89782921  0.52820069  0.93474700     0.00100
C1124       C  0.93386774  0.54798823  0.93016900    -0.08400
C1125       C  0.95863195  0.57386821  0.95917718     0.62000
H1126       H  0.97425307  0.55926302  0.89275558     0.12700
H1127       H  0.84863486  0.49077614  0.91075565     0.12700
C1128       C  0.86482382  0.47708604  0.84362766     0.62200
F1129       F  0.99198399  0.59369413  0.94634671    -0.22900
F1130       F  0.95820251  0.55699061  0.49048680    -0.20300
F1131       F  0.94943301  0.59569879  0.96856821    -0.19900
F1132       F  0.86857870  0.45061316  0.83920578    -0.20000
F1133       F  0.87185532  0.49433218  0.81046942    -0.20300
F1134       F  0.83093132  0.46287376  0.85236353    -0.23000
C1135       C  0.95585953  0.40220693  0.62400275    -0.05800
C1136       C  0.99148592  0.42298119  0.63065815     0.00100
C1137       C  0.01327550  0.42128499  0.60506401    -0.08500
C1138       C  0.99822413  0.39935455  0.57393577    -0.05900
C1139       C  0.96276740  0.37901239  0.56763371     0.00100
C1140       C  0.94104343  0.38045126  0.59297914    -0.08400
C1141       C  0.90246620  0.36019587  0.58696899     0.62000
H1142       H  0.93920206  0.40309367  0.64348482     0.12700
H1143       H  0.01412529  0.39769987  0.55396681     0.12700
C1144       C  0.05194379  0.44176383  0.60962821     0.62200
F1145       F  0.88716921  0.36934914  0.61217935    -0.22900
F1146       F  0.88778359  0.32554977  0.59113659    -0.20300
F1147       F  0.89538380  0.36616694  0.55180608    -0.19900
F1148       F  0.05973553  0.43020986  0.64037764    -0.20000
F1149       F  0.06585642  0.47635677  0.61309705    -0.20300
F1150       F  0.06741794  0.43799056  0.57943808    -0.23000
C1151       C  0.94047089  0.37309999  0.90617291    -0.05800
C1152       C  0.96489432  0.37824234  0.93224921     0.00100
C1153       C  0.00017640  0.40271477  0.92514169    -0.08500
C1154       C  0.00957382  0.42288571  0.89312613    -0.05900
C1155       C  0.98499420  0.41916877  0.86806974     0.00100
C1156       C  0.94967987  0.39303259  0.87411915    -0.08400
C1157       C  0.92133045  0.38607075  0.84773372     0.62000
H1158       H  0.91361477  0.35420482  0.91202232     0.12700
H1159       H  0.03638973  0.44264250  0.88828748     0.12700
C1160       C  0.02793255  0.40765077  0.95092098     0.62200
F1161       F  0.88991145  0.35639990  0.85665665    -0.22900
F1162       F  0.92877415  0.38212489  0.81184449    -0.20300
F1163       F  0.91789910  0.41291645  0.84951873    -0.19900
F1164       F  0.02065214  0.37613005  0.96096363    -0.20000
F1165       F  0.02999790  0.42551171  0.98232786    -0.20300
F1166       F  0.05971165  0.42597483  0.93409509    -0.23000
C1167       C  0.15595211  0.54115555  0.63059316    -0.05800
C1168       C  0.15729297  0.57114019  0.63725963     0.00100
C1169       C  0.17631999  0.59923664  0.61238740    -0.08500
C1170       C  0.19110432  0.59503226  0.58108459    -0.05900
C1171       C  0.18830638  0.56464211  0.57415878     0.00100
C1172       C  0.17098343  0.53732688  0.59938061    -0.08400
C1173       C  0.16705694  0.50376164  0.59245993     0.62000
H1174       H  0.14220838  0.51999301  0.64970493     0.12700
H1175       H  0.20462126  0.61538709  0.56095097     0.12700
C1176       C  0.18138440  0.63349377  0.61767936     0.62200
F1177       F  0.14773071  0.47979633  0.61960476    -0.22900
F1178       F  0.19898551  0.50960565  0.59216721    -0.20300
F1179       F  0.15095275  0.48992725  0.55865635    -0.19900
F1180       F  0.19914917  0.64859210  0.65039826    -0.20000
F1181       F  0.14999401  0.62886097  0.61790827    -0.20300
F1182       F  0.20042282  0.65622545  0.58946213    -0.23000
C1183       C  0.19913519  0.58428848  0.91138605    -0.05800
C1184       C  0.17786628  0.56226674  0.93976041     0.00100
C1185       C  0.14172530  0.54249169  0.93545898    -0.08500
C1186       C  0.12819222  0.54618977  0.90282905    -0.05900
C1187       C  0.14943410  0.56853352  0.87482919     0.00100
C1188       C  0.18544262  0.58774498  0.87863246    -0.08400
C1189       C  0.20917148  0.61096931  0.84799593     0.62000
H1190       H  0.22666530  0.59895259  0.91522782     0.12700
H1191       H  0.10068509  0.53122732  0.89857634     0.12700
C1192       C  0.11745015  0.51622536  0.96393417     0.62200
F1193       F  0.24297045  0.62345195  0.85539094    -0.22900
F1194       F  0.20717361  0.63861997  0.84442828    -0.20300
F1195       F  0.19988711  0.59306583  0.81473364    -0.19900
F1196       F  0.11880206  0.53248511  0.49638544    -0.20000
F1197       F  0.12645263  0.49390028  0.97118720    -0.20300
F1198       F  0.08379474  0.49698877  0.95148744    -0.23000
C1199       C  0.08829723  0.67173748  0.56654341    -0.05800
C1200       C  0.10854376  0.70783697  0.57014435     0.00100
C1201       C  0.11696369  0.72272634  0.60646521    -0.08500
C1202       C  0.10682184  0.70096527  0.63723791    -0.05900
C1203       C  0.08725898  0.66534674  0.63308110     0.00100
C1204       C  0.07692504  0.65019636  0.59754010    -0.08400
C1205       C  0.05410931  0.61142007  0.59259663     0.62000
H1206       H  0.08142749  0.66024123  0.53915016     0.12700
H1207       H  0.11380382  0.71158665  0.66506548     0.12700
C1208       C  0.13544990  0.76101340  0.61354325     0.62200
F1209       F  0.04833955  0.60177556  0.55557642    -0.22900
F1210       F  0.02268673  0.59821059  0.60888387    -0.20300
F1211       F  0.06927614  0.59710274  0.60910786    -0.19900
F1212       F  0.12002462  0.77328511  0.59328278    -0.20000
F1213       F  0.16954832  0.77827989  0.60387753    -0.20300
F1214       F  0.13433506  0.76820331  0.65054707    -0.23000
C1215       C  0.06176559  0.66629760  0.89384840    -0.05800
C1216       C  0.08715582  0.67142629  0.86932021     0.00100
C1217       C  0.12171043  0.69969349  0.87535563    -0.08500
C1218       C  0.13003770  0.71875141  0.90828428    -0.05900
C1219       C  0.10502269  0.71193488  0.93417361     0.00100
C1220       C  0.07002580  0.68688170  0.92574216    -0.08400
C1221       C  0.04156099  0.68323608  0.94884179     0.62000
H1222       H  0.03527106  0.64564366  0.88825838     0.12700
H1223       H  0.15665314  0.73868506  0.91453235     0.12700
C1224       C  0.14982941  0.71074048  0.84715978     0.62200
F1225       F  0.00991646  0.66212404  0.93160555    -0.22900
F1226       F  0.04767732  0.71513660  0.95377187    -0.20300
F1227       F  0.03985879  0.66939824  0.98301351    -0.19900
F1228       F  0.13877643  0.71264739  0.81234701    -0.20000
F1229       F  0.15854404  0.68766758  0.84647190    -0.20300
F1230       F  0.17919448  0.74282838  0.85556279    -0.23000
C1231       C  0.82718630  0.22114120  0.01753161    -0.05800
C1232       C  0.80263051  0.22263279  0.49781356     0.00100
C1233       C  0.81305927  0.25235926  0.47704903    -0.08500
C1234       C  0.84785576  0.27978809  0.47731062    -0.05900
C1235       C  0.87218712  0.27866538  0.49776874     0.00100
C1236       C  0.86208500  0.24876403  0.01767160    -0.08400
C1237       C  0.88805508  0.24588624  0.03831447     0.62000
H1238       H  0.81871484  0.19818692  0.03308936     0.12700
H1239       H  0.85630684  0.30300742  0.46229783     0.12700
C1240       C  0.78765477  0.25609914  0.45611276     0.62200
F1241       F  0.87381434  0.21274021  0.55027711    -0.22900
F1242       F  0.90028561  0.26740650  0.56889836    -0.20300
F1243       F  0.91510017  0.25495692  0.01521457    -0.19900
F1244       F  0.80297174  0.28889330  0.44235832    -0.20000
F1245       F  0.76163561  0.24944976  0.97958224    -0.20300
F1246       F  0.77395960  0.23355179  0.92637334    -0.23000
C1247       C  0.53383448  0.28862360  0.98253973    -0.05800
C1248       C  0.51255582  0.25925069  0.50389796     0.00100
C1249       C  0.48397152  0.25455796  0.52224855    -0.08500
C1250       C  0.47746228  0.27960574  0.51801792    -0.05900
C1251       C  0.49863303  0.30892469  0.49645565     0.00100
C1252       C  0.52779221  0.31403963  0.97892770    -0.08400
C1253       C  0.55331943  0.34665167  0.95788716     0.62000
H1254       H  0.55556469  0.29160793  0.96888790     0.12700
H1255       H  0.45575957  0.27660520  0.53176511     0.12700
C1256       C  0.46016340  0.22317539  0.54573664     0.62200
F1257       F  0.58198566  0.34797197  0.94758275    -0.22900
F1258       F  0.56424622  0.37504132  0.48001255    -0.20300
F1259       F  0.53826119  0.34831575  0.92595892    -0.19900
F1260       F  0.47729652  0.22432005  0.57731909    -0.20000
F1261       F  0.44903085  0.19357040  0.02579330    -0.20300
F1262       F  0.43151539  0.22158694  0.55671766    -0.23000
C1263       C  0.67767514  0.10810368  0.57764525    -0.05800
C1264       C  0.70070630  0.14374214  0.57369155     0.00100
C1265       C  0.70221906  0.16596852  0.60104457    -0.08500
C1266       C  0.68005806  0.15142022  0.63150042    -0.05900
C1267       C  0.65629496  0.11573291  0.63497714     0.00100
C1268       C  0.65512466  0.09352849  0.60771656    -0.08400
C1269       C  0.62934740  0.05480068  0.60915132     0.62000
H1270       H  0.67680898  0.09170104  0.55609782     0.12700
H1271       H  0.68079585  0.16799890  0.65268398     0.12700
C1272       C  0.72578998  0.20475428  0.59728378     0.62200
F1273       F  0.62973496  0.03881811  0.57717855    -0.22900
F1274       F  0.59655133  0.04649563  0.61306589    -0.20300
F1275       F  0.63708717  0.04197353  0.63869203    -0.19900
F1276       F  0.71979877  0.21447452  0.56374349    -0.20000
F1277       F  0.75957331  0.21556663  0.59908012    -0.20300
F1278       F  0.72070742  0.22136731  0.62523467    -0.23000
C1279       C  0.69787712  0.12548587  0.91256029    -0.05800
C1280       C  0.69087004  0.14174766  0.93955296     0.00100
C1281       C  0.66450891  0.14645987  0.93377491    -0.08500
C1282       C  0.64623773  0.13505696  0.90018363    -0.05900
C1283       C  0.65282225  0.11828703  0.87320936     0.00100
C1284       C  0.67886298  0.11303147  0.87944000    -0.08400
C1285       C  0.68733659  0.09527977  0.85114115     0.62000
H1286       H  0.71823581  0.12230065  0.91795832     0.12700
H1287       H  0.62610925  0.13859166  0.89505429     0.12700
C1288       C  0.65587950  0.16363643  0.96271928     0.62200
F1289       F  0.71612416  0.09667678  0.86126419    -0.22900
F1290       F  0.69362453  0.11099500  0.81706575    -0.20300
F1291       F  0.66030139  0.06106784  0.84796274    -0.19900
F1292       F  0.68514738  0.19502115  0.97307693    -0.20000
F1293       F  0.64201809  0.14293854  0.49353203    -0.20300
F1294       F  0.63225503  0.16928445  0.94951422    -0.23000
C1295       C  0.51034542  0.14244764  0.56720074    -0.05800
C1296       C  0.52795421  0.17828592  0.56925323     0.00100
C1297       C  0.54575262  0.19609267  0.60218236    -0.08500
C1298       C  0.54434436  0.17696121  0.63250424    -0.05900
C1299       C  0.52589971  0.14114224  0.63060024     0.00100
C1300       C  0.50916390  0.12340705  0.59733248    -0.08400
C1301       C  0.49116317  0.08485909  0.59301398     0.62000
H1302       H  0.49716420  0.12929942  0.54165764     0.12700
H1303       H  0.55731577  0.18980123  0.65824009     0.12700
C1304       C  0.56686008  0.23494178  0.60514819     0.62200
F1305       F  0.48320212  0.07441360  0.55630058    -0.22900
F1306       F  0.46094461  0.06752929  0.61270664    -0.20300
F1307       F  0.51211556  0.07562891  0.60587359    -0.19900
F1308       F  0.54540394  0.24563575  0.60529248    -0.20000
F1309       F  0.58902584  0.24948426  0.57548789    -0.20300
F1310       F  0.58632934  0.24691251  0.63739876    -0.23000
C1311       C  0.53072835  0.15230368  0.93671647    -0.05800
C1312       C  0.53157375  0.18237360  0.93423502     0.00100
C1313       C  0.53359721  0.19614064  0.89844838    -0.08500
C1314       C  0.53370503  0.17858835  0.86704573    -0.05900
C1315       C  0.53200108  0.14847963  0.87025340     0.00100
C1316       C  0.53099334  0.13517070  0.90528614    -0.08400
C1317       C  0.53031162  0.10303057  0.90926238     0.62000
H1318       H  0.52931431  0.14163425  0.96359855     0.12700
H1319       H  0.53449948  0.18785574  0.83943376     0.12700
C1320       C  0.53562145  0.22884775  0.89254348     0.62200
F1321       F  0.53036491  0.09485392  0.94603513    -0.22900
F1322       F  0.55885275  0.10800868  0.89250485    -0.20300
F1323       F  0.50116710  0.07546111  0.89248444    -0.19900
F1324       F  0.56292960  0.25560928  0.91248211    -0.20000
F1325       F  0.50537353  0.22396652  0.90354848    -0.20300
F1326       F  0.54054403  0.23841336  0.85565174    -0.23000
C1327       C  0.22029818  0.81661045  0.02666895    -0.05800
C1328       C  0.19466981  0.81299645  0.50359987     0.00100
C1329       C  0.20227217  0.84082168  0.48097046    -0.08500
C1330       C  0.23540371  0.87156097  0.48288466    -0.05900
C1331       C  0.26099620  0.87496462  0.50584362     0.00100
C1332       C  0.25364299  0.84678557  0.02765059    -0.08400
C1333       C  0.28108344  0.84733088  0.05003255     0.62000
H1334       H  0.21425408  0.79488736  0.04316774     0.12700
H1335       H  0.24180654  0.89320967  0.46599125     0.12700
C1336       C  0.17577169  0.83844655  0.45513176     0.62200
F1337       F  0.26917161  0.81530059  0.56406966    -0.22900
F1338       F  0.29162091  0.86968441  0.57983584    -0.20300
F1339       F  0.30882588  0.85737109  0.02764602    -0.19900
F1340       F  0.14602096  0.82697151  0.47438795    -0.20000
F1341       F  0.16866613  0.81605617  0.92615664    -0.20300
F1342       F  0.18724369  0.86992851  0.93990749    -0.23000
C1343       C  0.39827744  0.96333138  0.56754188    -0.05800
C1344       C  0.36758696  0.96085486  0.56937970     0.00100
C1345       C  0.35719969  0.96698519  0.60339491    -0.08500
C1346       C  0.37763716  0.97427388  0.63499156    -0.05900
C1347       C  0.40728127  0.97483970  0.63346952     0.00100
C1348       C  0.41834777  0.97009494  0.59920587    -0.08400
C1349       C  0.45058724  0.97123525  0.59619287     0.62000
H1350       H  0.40572725  0.95849937  0.54124209     0.12700
H1351       H  0.37030416  0.97902716  0.66142254     0.12700
C1352       C  0.32527214  0.96661741  0.60628206     0.62200
F1353       F  0.45852603  0.96939089  0.55976654    -0.22900
F1354       F  0.44540883  0.94348685  0.61474599    -0.20300
F1355       F  0.47817012  0.00129146  0.61169623    -0.19900
F1356       F  0.29635248  0.93341146  0.60256583    -0.20000
F1357       F  0.32533098  0.98675936  0.57875648    -0.20300
F1358       F  0.32356966  0.97935202  0.64015546    -0.23000
C1359       C  0.41107223  0.00283960  0.89720961    -0.05800
C1360       C  0.40283644  0.97739451  0.87087881     0.00100
C1361       C  0.37184666  0.94433995  0.87420526    -0.08500
C1362       C  0.35229597  0.93676419  0.90639303    -0.05900
C1363       C  0.36212257  0.96141527  0.93444508     0.00100
C1364       C  0.39088219  0.99568739  0.92873775    -0.08400
C1365       C  0.40093591  0.02488717  0.95545172     0.62000
H1366       H  0.43404338  0.02844974  0.89336428     0.12700
H1367       H  0.32989488  0.91085513  0.91045848     0.12700
C1368       C  0.35887568  0.91711021  0.84409197     0.62200
F1369       F  0.42022037  0.05631150  0.93785132    -0.22900
F1370       F  0.42028993  0.02520048  0.98428357    -0.20300
F1371       F  0.37211304  0.02135868  0.96947444    -0.19900
F1372       F  0.37664839  0.90234054  0.84570196    -0.20000
F1373       F  0.36294965  0.93140529  0.80951474    -0.20300
F1374       F  0.32434994  0.89138995  0.84830090    -0.23000
C1375       C  0.54379689  0.78032074  0.51391856    -0.05800
C1376       C  0.57441374  0.79024376  0.99648347     0.00100
C1377       C  0.59609504  0.82363480  0.98174387    -0.08500
C1378       C  0.58569273  0.84580604  0.98409011    -0.05900
C1379       C  0.55525488  0.83599177  0.50178385     0.00100
C1380       C  0.53369742  0.80270729  0.51688647    -0.08400
C1381       C  0.49980268  0.79049714  0.53500525     0.62000
H1382       H  0.52773573  0.75467093  0.52513767     0.12700
H1383       H  0.60177584  0.87149300  0.97298201     0.12700
C1384       C  0.63089631  0.83653466  0.96576560     0.62200
F1385       F  0.48106212  0.75594107  0.04361107    -0.22900
F1386       F  0.48023941  0.79544248  0.01129927    -0.20300
F1387       F  0.50566154  0.80857700  0.56756859    -0.19900
F1388       F  0.62719352  0.81692147  0.93534474    -0.20000
F1389       F  0.65055907  0.83457283  0.49250518    -0.20300
F1390       F  0.64839679  0.87036015  0.45453738    -0.23000
C1391       C  0.55481866  0.91424950  0.60365029    -0.05800
C1392       C  0.53225355  0.90799979  0.57453834     0.00100
C1393       C  0.50601961  0.91291484  0.58048730    -0.08500
C1394       C  0.50534278  0.92696728  0.61447249    -0.05900
C1395       C  0.52937454  0.93551937  0.64253565     0.00100
C1396       C  0.55308529  0.92693583  0.63817963    -0.08400
C1397       C  0.57618812  0.92988121  0.66925932     0.62000
H1398       H  0.57407700  0.90933135  0.59931293     0.12700
H1399       H  0.48715207  0.93282347  0.61871986     0.12700
C1400       C  0.47878307  0.90355425  0.55134604     0.62200
F1401       F  0.57862258  0.90232079  0.66782252    -0.22900
F1402       F  0.56359075  0.92959916  0.70385150    -0.20300
F1403       F  0.60859045  0.95982460  0.66531959    -0.19900
F1404       F  0.46589578  0.87140149  0.53657980    -0.20000
F1405       F  0.49270021  0.92761316  0.52337882    -0.20300
F1406       F  0.45154670  0.90255310  0.56620680    -0.23000
C1407       C  0.52142350  0.91578239  0.87487278    -0.05800
C1408       C  0.53437256  0.95054418  0.87749674     0.00100
C1409       C  0.54808351  0.96849582  0.91137781    -0.08500
C1410       C  0.54919953  0.95087352  0.94174249    -0.05900
C1411       C  0.53732515  0.91618640  0.93912421     0.00100
C1412       C  0.52285594  0.89809635  0.90509536    -0.08400
C1413       C  0.50861124  0.86039993  0.90035062     0.62000
H1414       H  0.51097982  0.90284114  0.84846454     0.12700
H1415       H  0.55999931  0.96441013  0.96778475     0.12700
C1416       C  0.56083662  0.00586598  0.91564323     0.62200
F1417       F  0.49189897  0.84733385  0.86662368    -0.22900
F1418       F  0.48529123  0.84135485  0.92805808    -0.20300
F1419       F  0.53506534  0.85637478  0.90173388    -0.19900
F1420       F  0.53594206  0.01003791  0.90341319    -0.20000
F1421       F  0.59024963  0.02655546  0.89516307    -0.20300
F1422       F  0.56847919  0.01685714  0.95220686    -0.23000
loop_ 
_geom_bond_atom_site_label_1 
_geom_bond_atom_site_label_2 
_geom_bond_distance 
_geom_bond_site_symmetry_2 
_ccdc_geom_bond_type 
C1            N6   1.357       .  A
C1          N713   1.358   1_554  A
C1          C668   1.472       .  S
N2            C3   1.356       .  A
N2          C712   1.358       .  A
C3            N4   1.355       .  A
C3          C700   1.485       .  S
N4          C716   1.354       .  A
C5            N6   1.356       .  A
C5          N715   1.354       .  A
C5          C681   1.475       .  S
C7           N12   1.353       .  A
C7          N719   1.359   1_554  A
C7          C620   1.478       .  S
N8            C9   1.361       .  A
N8          C718   1.359       .  A
C9          N721   1.355       .  A
C9          C652   1.482       .  S
N10          C11   1.354       .  A
N10         C720   1.355   1_554  A
C11          N12   1.352       .  A
C11         C633   1.469       .  S
C13          N31   1.349       .  A
C13          C50   1.451       .  S
C13         C697   1.466       .  S
N14          N31   1.325       .  A
N14          N36   1.320   1_565  A
N14         Co51   2.083       .  S
C15          N40   1.338       .  A
C15          C53   1.459       .  S
C15          H60   1.081       .  S
H16          C57   1.082       .  S
C17          N41   1.336       .  A
C17          C21   1.450       .  S
C17          H46   1.081       .  S
Co18         N36   2.072       .  S
Co18         N26   2.071       .  S
Co18         N58   2.069   1_545  S
Co18         N34   2.082       .  S
Co18        Cl62   2.442       .  S
N19          C57   1.339       .  A
N19          N26   1.318       .  A
N19         Co20   2.072       .  S
Co20         N23   2.076       .  S
Co20         N40   2.077       .  S
Co20         N27   2.074       .  S
Co20        Cl62   2.452       .  S
C21          N59   1.346       .  A
C21         C604   1.457       .  S
N22          N29   1.319   1_545  A
N22          N52   1.322       .  A
N22         Co55   2.069       .  S
N23          N41   1.319       .  A
N23          N59   1.323       .  A
N24          C53   1.350       .  A
N24          N34   1.324       .  A
H25          C50   1.080   1_545  S
N26          N47   1.320       .  A
N27          N45   1.318       .  A
N27          N32   1.323       .  A
C28          N32   1.348       .  A
C28          C56   1.452       .  S
C28         C588   1.463       .  S
N29          C44   1.342       .  A
N29         Co51   2.089       .  S
C30          N58   1.337       .  A
C30          C33   1.455       .  S
C30          H64   1.079       .  S
C33          N54   1.352       .  A
C33         C684   1.475       .  S
N34          N40   1.319       .  A
N35          C61   1.340       .  A
N35          N37   1.320   1_565  A
N35         Co51   2.083       .  S
N36          C50   1.335   1_545  A
N37          N65   1.319       .  A
N37         Co55   2.063       .  S
H38          C61   1.081       .  S
H39          C56   1.080       .  S
N41         Co55   2.065       .  S
N42          N54   1.326       .  A
N42          N58   1.320       .  A
N42         Co51   2.094       .  S
C43          N47   1.345       .  A
C43          C57   1.459       .  S
C43         C572   1.473       .  S
C44          C63   1.463       .  S
C44          H48   1.079       .  S
N45          C56   1.335       .  A
N45         Co55   2.065       .  S
C49          N65   1.343   1_565  A
C49          C61   1.462       .  S
C49         C636   1.466       .  S
Co51        Cl62   2.455   1_565  S
N52          C63   1.346   1_545  A
C53         C556   1.480       .  S
Co55        Cl62   2.441       .  S
C63         C649   1.474       .  S
C66          N71   1.357       .  A
C66         N778   1.357   1_554  A
C66         C537   1.473       .  S
N67          C68   1.354       .  A
N67         C777   1.357       .  A
C68          N69   1.354       .  A
C68         C601   1.493       .  S
N69         C781   1.352       .  A
C70          N71   1.356       .  A
C70         N780   1.352       .  A
C70         C585   1.472       .  S
C72          N77   1.361       .  A
C72         N784   1.356   1_554  A
C72         C521   1.477   1_554  S
N73          C74   1.354       .  A
N73         C783   1.356       .  A
C74         N786   1.349       .  A
C74         C569   1.463       .  S
N75          C76   1.353       .  A
N75         C785   1.349   1_554  A
C76          N77   1.360       .  A
C76         C553   1.473       .  S
C78          N96   1.348       .  A
C78         C115   1.463       .  S
C78         C505   1.484       .  S
N79          N96   1.322       .  A
N79         N101   1.319       .  A
N79        Co116   2.078       .  S
C80         N105   1.335       .  A
C80         C118   1.458       .  S
C80         H125   1.078       .  S
H81         C122   1.078       .  S
C82         N106   1.342       .  A
C82          C86   1.466   1_455  S
C82         H111   1.081       .  S
Co83        N101   2.083       .  S
Co83         N91   2.069   1_455  S
Co83        N123   2.067       .  S
Co83         N99   2.083   1_455  S
Co83       Cl127   2.445       .  S
N84         C122   1.342       .  A
N84          N91   1.319       .  A
N84         Co85   2.086       .  S
Co85         N88   2.068       .  S
Co85        N105   2.063       .  S
Co85         N92   2.091       .  S
Co85       Cl127   2.447   1_655  S
C86         N124   1.345       .  A
C86         C444   1.484       .  S
N87          N94   1.320       .  A
N87         N117   1.319       .  A
N87        Co120   2.069       .  S
N88         N106   1.318   1_655  A
N88         N124   1.319       .  A
N89         C118   1.351       .  A
N89          N99   1.322       .  A
H90         C115   1.081       .  S
N91         N112   1.320       .  A
N92         N110   1.315   1_655  A
N92          N97   1.322       .  A
C93          N97   1.356   1_455  A
C93         C121   1.469       .  S
C93         C425   1.499   1_455  S
N94         C109   1.341       .  A
N94        Co116   2.079       .  S
C95         N123   1.337       .  A
C95          C98   1.451       .  S
C95         H129   1.081       .  S
C98         N119   1.349       .  A
C98         C492   1.465       .  S
N99         N105   1.317       .  A
N100        C126   1.337       .  A
N100        N102   1.315       .  A
N100       Co116   2.074       .  S
N101        C115   1.341       .  A
N102        N130   1.320       .  A
N102       Co120   2.080       .  S
H103        C126   1.074       .  S
H104        C121   1.074       .  S
N106       Co120   2.083       .  S
N107        N119   1.324       .  A
N107        N123   1.320       .  A
N107       Co116   2.084       .  S
C108        N112   1.345       .  A
C108        C122   1.460       .  S
C108        C409   1.468       .  S
C109        C128   1.457       .  S
C109        H113   1.080       .  S
N110        C121   1.338       .  A
N110       Co120   2.070       .  S
C114        N130   1.354       .  A
C114        C126   1.471       .  S
C114        C457   1.497       .  S
Co116      Cl127   2.450       .  S
N117        C128   1.345       .  A
C118        C393   1.476       .  S
Co120      Cl127   2.448       .  S
C128        C476   1.462       .  S
C131        N132   1.361       .  A
C131        N847   1.356   1_554  A
C131        C377   1.478   1_554  S
N132        C133   1.357       .  A
C133        N134   1.352       .  A
C133        C460   1.468       .  S
N134        C846   1.351   1_554  A
C135        N136   1.355       .  A
C135        N845   1.351       .  A
C135        C473   1.469       .  S
N136        C842   1.356       .  A
C137        N138   1.356   1_556  A
C137        N853   1.356       .  A
C137        C524   1.473       .  S
N138        C139   1.357       .  A
C139        N140   1.357       .  A
C139        C428   1.478       .  S
N140        C852   1.356   1_554  A
C141        N142   1.358       .  A
C141        N851   1.356       .  A
C141        C441   1.479       .  S
N142        C848   1.356       .  A
C143        N148   1.357   1_556  A
C143        N855   1.359       .  A
C143        C364   1.470       .  S
N144        C145   1.356       .  A
N144        C854   1.359       .  A
C145        N857   1.351       .  A
C145        C412   1.471       .  S
N146        C147   1.355       .  A
N146        C856   1.351   1_554  A
C147        N148   1.356       .  A
C147        C396   1.482       .  S
C149        N154   1.357       .  A
C149        N861   1.353   1_554  A
C149        C617   1.481       .  S
N150        C151   1.357       .  A
N150        C860   1.353       .  A
C151        N863   1.357       .  A
C151        C508   1.479       .  S
N152        C153   1.360       .  A
N152        C862   1.357   1_554  A
C153        N154   1.356       .  A
C153        C489   1.495       .  S
C155        N173   1.351       .  A
C155        C192   1.458       .  S
C155        C313   1.482       .  S
N156        N173   1.325       .  A
N156        N178   1.320       .  A
N156       Co193   2.090       .  S
C157        N182   1.338       .  A
C157        C195   1.463       .  S
C157        H202   1.081       .  S
H158        C199   1.082       .  S
C159        N183   1.332       .  A
C159        C163   1.447       .  S
C159        H188   1.079       .  S
Co160       N178   2.073       .  S
Co160       N168   2.079       .  S
Co160       N200   2.074       .  S
Co160       N176   2.081       .  S
Co160      Cl204   2.437       .  S
N161        C199   1.341       .  A
N161        N168   1.318       .  A
N161       Co162   2.074       .  S
Co162       N165   2.085       .  S
Co162       N182   2.085       .  S
Co162       N169   2.075       .  S
Co162      Cl204   2.457       .  S
C163        N201   1.349       .  A
C163        C252   1.460       .  S
N164        N171   1.317       .  A
N164        N194   1.320       .  A
N164       Co197   2.068       .  S
N165        N183   1.320       .  A
N165        N201   1.326       .  A
N166        C195   1.349       .  A
N166        N176   1.324       .  A
H167        C192   1.081       .  S
N168        N189   1.322       .  A
N169        N187   1.319       .  A
N169        N174   1.324       .  A
C170        N174   1.347       .  A
C170        C198   1.448       .  S
C170        C236   1.457       .  S
N171        C186   1.341       .  A
N171       Co193   2.083       .  S
C172        N200   1.336       .  A
C172        C175   1.455       .  S
C172        H206   1.079       .  S
C175        N196   1.351       .  A
C175        C297   1.474       .  S
N176        N182   1.319       .  A
N177        C203   1.344       .  A
N177        N179   1.319       .  A
N177       Co193   2.091       .  S
N178        C192   1.334       .  A
N179        N207   1.318       .  A
N179       Co197   2.065       .  S
H180        C203   1.079       .  S
H181        C198   1.082       .  S
N183       Co197   2.063       .  S
N184        N196   1.326       .  A
N184        N200   1.319       .  A
N184       Co193   2.083       .  S
C185        N189   1.348       .  A
C185        C199   1.460       .  S
C185        C345   1.478       .  S
C186        C205   1.466       .  S
C186        H190   1.081       .  S
N187        C198   1.334       .  A
N187       Co197   2.061       .  S
C191        N207   1.344       .  A
C191        C203   1.468       .  S
C191        C265   1.477       .  S
Co193      Cl204   2.463       .  S
N194        C205   1.345       .  A
C195        C329   1.484       .  S
Co197      Cl204   2.434       .  S
C205        C284   1.484       .  S
C208        N213   1.356       .  A
C208        N920   1.357       .  A
C208       C1251   1.475       .  S
N209        C210   1.359       .  A
N209        C919   1.357   1_554  A
C210        N211   1.356   1_554  A
C210        C348   1.484       .  S
N211        C923   1.355       .  A
C212        N213   1.355       .  A
C212        N922   1.355       .  A
C212        C332   1.465       .  S
C214        N219   1.360       .  A
C214        N926   1.359       .  A
C214        C380   1.476       .  S
N215        C216   1.356       .  A
N215        C925   1.359   1_554  A
C216        N928   1.352   1_554  A
C216        C249   1.481       .  S
N217        C218   1.352       .  A
N217        C927   1.352       .  A
C218        N219   1.357       .  A
C218        C233   1.480       .  S
C220        N225   1.355       .  A
C220        N932   1.354       .  A
C220       C1072   1.471       .  S
N221        C222   1.355       .  A
N221        C931   1.354   1_554  A
C222        N223   1.358   1_554  A
C222        C316   1.480       .  S
N223        C935   1.358       .  A
C224        N225   1.358       .  A
C224        N934   1.358       .  A
C224        C300   1.481       .  S
C226        N231   1.359       .  A
C226        N938   1.356       .  A
C226        C665   1.473       .  S
N227        C228   1.357       .  A
N227        C937   1.356   1_554  A
C228        N229   1.354   1_554  A
C228        C281   1.478       .  S
N229        C941   1.358       .  A
C230        N231   1.359       .  A
C230        N940   1.358       .  A
C230        C268   1.488       .  S
C232        H239   1.083       .  S
C232        C233   1.409       .  A
C232        C237   1.398       .  A
C233        C234   1.420       .  A
C234        C235   1.406       .  A
C234        C241   1.518       .  S
C235        H240   1.083       .  S
C235        C236   1.399       .  A
C236        C237   1.407       .  A
C237        C238   1.521       .  S
C238        F242   1.384       .  S
C238        F243   1.382       .  S
C238        F244   1.384       .  S
C241        F245   1.382       .  S
C241        F246   1.383       .  S
C241        F247   1.385       .  S
C248        H255   1.082       .  S
C248        C249   1.409       .  A
C248        C253   1.399       .  A
C249        C250   1.420       .  A
C250        C251   1.407       .  A
C250        C257   1.518       .  S
C251        H256   1.083       .  S
C251        C252   1.399       .  A
C252        C253   1.409       .  A
C253        C254   1.522       .  S
C254        F258   1.385       .  S
C254        F259   1.384       .  S
C254        F260   1.382       .  S
C257        F261   1.383       .  S
C257        F262   1.380       .  S
C257        F263   1.385       .  S
C264        H271   1.083       .  S
C264        C265   1.405       .  A
C264        C269   1.406       .  A
C265        C266   1.413       .  A
C266        C267   1.403       .  A
C266        C273   1.518       .  S
C267        H272   1.080       .  S
C267        C268   1.406       .  A
C268        C269   1.421       .  A
C269        C270   1.521       .  S
C270        F274   1.385       .  S
C270        F275   1.382       .  S
C270        F276   1.384       .  S
C273        F277   1.380       .  S
C273        F278   1.384       .  S
C273        F279   1.385       .  S
C280        H287   1.083       .  S
C280        C281   1.400       .  A
C280        C285   1.404       .  A
C281        C282   1.417       .  A
C282        C283   1.404       .  A
C282        C289   1.517       .  S
C283        H288   1.082       .  S
C283        C284   1.403       .  A
C284        C285   1.424       .  A
C285        C286   1.521       .  S
C286        F290   1.385       .  S
C286        F291   1.383       .  S
C286        F292   1.382       .  S
C289        F293   1.383       .  S
C289        F294   1.381       .  S
C289        F295   1.383       .  S
C296        H303   1.084       .  S
C296        C297   1.401       .  A
C296        C301   1.407       .  A
C297        C298   1.415       .  A
C298        C299   1.400       .  A
C298        C305   1.518       .  S
C299        H304   1.085       .  S
C299        C300   1.404       .  A
C300        C301   1.420       .  A
C301        C302   1.517       .  S
C302        F306   1.383       .  S
C302        F307   1.384       .  S
C302       F1019   1.382       .  S
C305        F309   1.383       .  S
C305        F310   1.382       .  S
C305        F311   1.385       .  S
F308       C1013   1.382       .  S
C312        H319   1.082       .  S
C312        C313   1.404       .  A
C312        C317   1.401       .  A
C313        C314   1.418       .  A
C314        C315   1.407       .  A
C314        C321   1.518       .  S
C315        H320   1.083       .  S
C315        C316   1.404       .  A
C316        C317   1.419       .  A
C317        C318   1.522       .  S
C318        F322   1.385       .  S
C318        F324   1.384       .  S
C318       F1034   1.383       .  S
C321        F325   1.383       .  S
C321        F326   1.383       .  S
C321        F327   1.383       .  S
F323       C1029   1.383       .  S
C328        H335   1.082       .  S
C328        C329   1.408       .  A
C328        C333   1.404       .  A
C329        C330   1.423       .  A
C330        C331   1.405       .  A
C330        C337   1.520       .  S
C331        H336   1.084       .  S
C331        C332   1.398       .  A
C332        C333   1.408       .  A
C333        C334   1.516       .  S
C334        F338   1.385       .  S
C334        F339   1.382       .  S
C334        F340   1.383       .  S
C337        F341   1.383       .  S
C337        F342   1.382       .  S
C337        F343   1.385       .  S
C344        H351   1.083       .  S
C344        C345   1.403       .  A
C344        C349   1.407       .  A
C345        C346   1.417       .  A
C346        C347   1.402       .  A
C346        C353   1.521       .  S
C347        H352   1.083       .  S
C347        C348   1.405       .  A
C348        C349   1.421       .  A
C349        C350   1.520       .  S
C350        F354   1.385       .  S
C350        F355   1.384       .  S
C350       F1067   1.382       .  S
C353        F357   1.384       .  S
C353        F358   1.382       .  S
C353        F359   1.385       .  S
F356       C1061   1.382       .  S
C360        H367   1.083       .  S
C360        C365   1.404       .  A
C360       C1072   1.403       .  A
C361        C931   1.471       .  S
C361        C362   1.414       .  A
C361       C1071   1.403   1_556  A
C362        C363   1.404       .  A
C362        C369   1.518       .  S
C363        H368   1.083       .  S
C363        C364   1.402       .  A
C364       C1076   1.415   1_556  A
C365       C1075   1.415       .  A
C365        C366   1.520       .  S
C366        F370   1.385       .  S
C366        F371   1.381       .  S
C366        F372   1.383       .  S
C369        F373   1.384       .  S
C369        F374   1.382       .  S
C369        F375   1.384       .  S
C376        H383   1.083       .  S
C376        C377   1.402   1_554  A
C376        C381   1.404       .  A
C377       C1089   1.420       .  A
C378        C379   1.407       .  A
C378       C1088   1.420       .  A
C378        C385   1.521       .  S
C379        H384   1.083       .  S
C379        C380   1.403       .  A
C380       C1092   1.417       .  A
C381       C1091   1.417   1_554  A
C381        C382   1.519       .  S
C382        F386   1.385       .  S
C382        F388   1.380       .  S
C382       F1098   1.383       .  S
C385        F389   1.383       .  S
C385        F391   1.385       .  S
C385       F1101   1.383       .  S
F387       C1093   1.383       .  S
F390       C1096   1.383       .  S
C392        H399   1.083       .  S
C392        C393   1.404       .  A
C392        C397   1.405       .  A
C393        C394   1.418       .  A
C394        C395   1.402       .  A
C394        C401   1.522       .  S
C395        H400   1.083       .  S
C395        C396   1.405       .  A
C396        C397   1.420       .  A
C397        C398   1.521       .  S
C398        F402   1.385       .  S
C398        F403   1.382       .  S
C398        F404   1.383       .  S
C401        F405   1.381       .  S
C401        F406   1.383       .  S
C401        F407   1.385       .  S
C408        H415   1.084       .  S
C408        C409   1.400       .  A
C408        C413   1.401       .  A
C409        C410   1.414       .  A
C410        C411   1.406       .  A
C410        C417   1.517       .  S
C411        H416   1.083       .  S
C411        C412   1.403       .  A
C412        C413   1.418       .  A
C413        C414   1.521       .  S
C414        F418   1.385       .  S
C414        F420   1.383       .  S
C414       F1130   1.382       .  S
C417        F421   1.381       .  S
C417        F422   1.383       .  S
C417        F423   1.385       .  S
F419       C1125   1.382       .  S
C424        H431   1.081       .  S
C424        C425   1.409       .  A
C424        C429   1.402       .  A
C425        C426   1.429   1_655  A
C426        C427   1.410   1_455  A
C426        C433   1.519       .  S
C427        H432   1.083   1_655  S
C427        C428   1.400       .  A
C428        C429   1.415       .  A
C429        C430   1.522       .  S
C430        F434   1.385       .  S
C430        F435   1.383       .  S
C430        F436   1.384       .  S
C433        F437   1.382       .  S
C433        F438   1.383       .  S
C433        F439   1.385       .  S
C440        H447   1.083       .  S
C440        C441   1.402       .  A
C440        C445   1.402       .  A
C441        C442   1.416   1_655  A
C442        C443   1.406       .  A
C442        C449   1.518       .  S
C443        H448   1.082       .  S
C443        C444   1.406   1_455  A
C444        C445   1.424       .  A
C445        C446   1.522       .  S
C446        F450   1.385       .  S
C446        F451   1.384       .  S
C446        F452   1.382       .  S
C449        F453   1.384       .  S
C449        F454   1.382       .  S
C449        F455   1.385       .  S
C456        H463   1.082       .  S
C456        C457   1.413       .  A
C456        C461   1.403       .  A
C457        C458   1.428       .  A
C458        C459   1.406       .  A
C458        C465   1.518       .  S
C459        H464   1.083       .  S
C459        C460   1.397       .  A
C460        C461   1.408       .  A
C461        C462   1.519       .  S
C462        F466   1.385       .  S
C462        F467   1.382       .  S
C462        F468   1.383       .  S
C465        F469   1.383       .  S
C465        F470   1.383       .  S
C465        F471   1.385       .  S
C472        H479   1.084       .  S
C472        C473   1.403       .  A
C472        C477   1.404       .  A
C473        C474   1.419       .  A
C474        C475   1.400       .  A
C474        C481   1.521       .  S
C475        H480   1.084       .  S
C475        C476   1.398       .  A
C476        C477   1.413       .  A
C477        C478   1.518       .  S
C478        F482   1.385       .  S
C478        F483   1.382       .  S
C478        F484   1.384       .  S
C481        F486   1.383       .  S
C481        F487   1.385       .  S
C481       F1196   1.382       .  S
F485       C1192   1.382       .  S
C488        H495   1.081       .  S
C488        C489   1.412       .  A
C488        C493   1.404       .  A
C489        C490   1.428       .  A
C490        C491   1.407       .  A
C490        C497   1.521       .  S
C491        H496   1.083       .  S
C491        C492   1.396       .  A
C492        C493   1.409       .  A
C493        C494   1.520       .  S
C494        F498   1.384       .  S
C494        F499   1.383       .  S
C494        F500   1.384       .  S
C497        F501   1.384       .  S
C497        F502   1.383       .  S
C497        F503   1.385       .  S
C504        H511   1.082       .  S
C504        C505   1.407       .  A
C504        C509   1.408       .  A
C505        C506   1.421       .  A
C506        C507   1.401       .  A
C506        C513   1.521       .  S
C507        H512   1.083       .  S
C507        C508   1.402       .  A
C508        C509   1.416       .  A
C509        C510   1.519       .  S
C510        F514   1.385       .  S
C510        F515   1.384       .  S
C510        F516   1.381       .  S
C513        F517   1.384       .  S
C513        F518   1.382       .  S
C513        F519   1.385       .  S
C520        H527   1.083       .  S
C520        C525   1.408       .  A
C520       C1232   1.405       .  A
C521        C522   1.420       .  A
C521       C1231   1.405   1_556  A
C522        C523   1.402       .  A
C522        C529   1.522       .  S
C523        H528   1.084       .  S
C523        C524   1.401       .  A
C524       C1236   1.414   1_556  A
C525       C1235   1.414       .  A
C525        C526   1.517       .  S
C526        F532   1.384       .  S
C526       F1241   1.385       .  S
C526       F1242   1.382       .  S
C529        F533   1.385       .  S
C529       F1245   1.383       .  S
C529       F1246   1.382       .  S
F530       C1237   1.385       .  S
F531       C1237   1.382       .  S
F534       C1240   1.383       .  S
F535       C1240   1.382       .  S
C536        H543   1.083       .  S
C536        C541   1.404       .  A
C536       C1248   1.402       .  A
C537        C538   1.416       .  A
C537       C1247   1.402   1_554  A
C538        C539   1.405       .  A
C538        C545   1.519       .  S
C539        H544   1.083       .  S
C539        C540   1.403   1_554  A
C540        C919   1.475       .  S
C540       C1252   1.419       .  A
C541       C1251   1.419       .  A
C541        C542   1.521       .  S
C542        F546   1.385       .  S
C542        F548   1.382       .  S
C542       F1258   1.384       .  S
C545        F549   1.382       .  S
C545        F551   1.384       .  S
C545       F1261   1.384       .  S
F547       C1253   1.384       .  S
F550       C1256   1.384       .  S
C552        H559   1.083       .  S
C552        C553   1.403       .  A
C552        C557   1.404       .  A
C553        C554   1.415       .  A
C554        C555   1.406       .  A
C554        C561   1.520       .  S
C555        H560   1.082       .  S
C555        C556   1.406       .  A
C556        C557   1.418       .  A
C557        C558   1.520       .  S
C558        F562   1.385       .  S
C558        F563   1.384       .  S
C558        F564   1.382       .  S
C561        F565   1.384       .  S
C561        F566   1.383       .  S
C561        F567   1.384       .  S
C568        H575   1.083       .  S
C568        C569   1.398       .  A
C568        C573   1.403       .  A
C569        C570   1.415       .  A
C570        C571   1.401       .  A
C570        C577   1.521       .  S
C571        H576   1.082       .  S
C571        C572   1.403       .  A
C572        C573   1.420       .  A
C573        C574   1.520       .  S
C574        F578   1.384       .  S
C574        F579   1.383       .  S
C574        F580   1.383       .  S
C577        F581   1.383       .  S
C577        F583   1.385       .  S
C577       F1293   1.383       .  S
F582       C1288   1.383       .  S
C584        H591   1.083       .  S
C584        C585   1.405       .  A
C584        C589   1.400       .  A
C585        C586   1.416       .  A
C586        C587   1.404       .  A
C586        C593   1.518       .  S
C587        H592   1.083       .  S
C587        C588   1.401       .  A
C588        C589   1.414       .  A
C589        C590   1.522       .  S
C590        F594   1.385       .  S
C590        F595   1.381       .  S
C590        F596   1.384       .  S
C593        F597   1.382       .  S
C593        F598   1.383       .  S
C593        F599   1.385       .  S
C600        H607   1.081       .  S
C600        C601   1.414       .  A
C600        C605   1.398       .  A
C601        C602   1.429       .  A
C602        C603   1.406       .  A
C602        C609   1.522       .  S
C603        H608   1.083       .  S
C603        C604   1.395       .  A
C604        C605   1.405       .  A
C605        C606   1.521       .  S
C606        F610   1.384       .  S
C606        F611   1.383       .  S
C606        F612   1.382       .  S
C609        F613   1.383       .  S
C609        F614   1.383       .  S
C609        F615   1.385       .  S
C616        H623   1.083       .  S
C616        C621   1.402       .  A
C616       C1328   1.403       .  A
C617        C618   1.420   1_554  A
C617       C1327   1.403       .  A
C618        C619   1.408       .  A
C618        C625   1.519       .  S
C619        H624   1.083       .  S
C619        C620   1.403   1_556  A
C620       C1332   1.420       .  A
C621       C1331   1.420       .  A
C621        C622   1.523       .  S
C622        F628   1.384       .  S
C622       F1337   1.385       .  S
C622       F1338   1.382       .  S
C625        F629   1.383       .  S
C625       F1341   1.382       .  S
C625       F1342   1.385       .  S
F626       C1333   1.385       .  S
F627       C1333   1.382       .  S
F630       C1336   1.382       .  S
F631       C1336   1.385       .  S
C632        H639   1.083       .  S
C632        C633   1.402       .  A
C632        C637   1.400       .  A
C633        C634   1.415       .  A
C634        C635   1.403       .  A
C634        C641   1.518       .  S
C635        H640   1.083       .  S
C635        C636   1.401       .  A
C636        C637   1.413       .  A
C637        C638   1.512       .  S
C638        F642   1.385       .  S
C638        F643   1.375       .  S
C638        F644   1.383   1_565  S
C641        F645   1.382       .  S
C641        F646   1.383       .  S
C641        F647   1.385       .  S
C648        H655   1.083       .  S
C648        C649   1.402   1_545  A
C648        C653   1.404   1_545  A
C649        C650   1.416       .  A
C650        C651   1.404       .  A
C650        C657   1.518       .  S
C651        H656   1.083       .  S
C651        C652   1.405       .  A
C652        C653   1.421       .  A
C653        C654   1.520   1_565  S
C654        F658   1.385       .  S
C654        F659   1.383       .  S
C654        F660   1.384       .  S
C657        F661   1.381       .  S
C657        F662   1.384       .  S
C657        F663   1.385       .  S
C664        H671   1.083       .  S
C664        C669   1.405       .  A
C664       C1376   1.403   1_554  A
C665        C666   1.415       .  A
C665       C1375   1.403       .  A
C666        C667   1.405       .  A
C666        C673   1.517       .  S
C667        H672   1.083       .  S
C667       C1379   1.402       .  A
C668        C669   1.416       .  A
C668       C1378   1.402   1_554  A
C669        C670   1.520       .  S
C670        F676   1.382       .  S
C670       F1385   1.385       .  S
C670       F1386   1.383       .  S
C673        F677   1.381       .  S
C673       F1389   1.383       .  S
C673       F1390   1.385       .  S
F674       C1381   1.385       .  S
F675       C1381   1.383       .  S
F678       C1384   1.383       .  S
F679       C1384   1.385       .  S
C680        H687   1.083       .  S
C680        C681   1.404       .  A
C680        C685   1.405       .  A
C681        C682   1.417       .  A
C682        C683   1.403       .  A
C682        C689   1.520       .  S
C683        H688   1.065       .  S
C683        C684   1.398       .  A
C684        C685   1.416       .  A
C685        C686   1.518       .  S
C686        F690   1.385       .  S
C686        F691   1.383       .  S
C686        F692   1.382       .  S
C689        F693   1.384       .  S
C689        F694   1.383       .  S
C689        F695   1.383       .  S
C696        H703   1.083       .  S
C696        C697   1.398       .  A
C696        C701   1.407       .  A
C697        C698   1.412       .  A
C698        C699   1.403       .  A
C698        C705   1.522   1_565  S
C699        H704   1.083       .  S
C699        C700   1.408       .  A
C700        C701   1.423       .  A
C701        C702   1.520       .  S
C702        F706   1.385       .  S
C702        F707   1.383       .  S
C702        F708   1.383       .  S
C705        F709   1.384       .  S
C705        F710   1.381       .  S
C705        F711   1.384       .  S
C712        N717   1.357       .  A
C712       C1379   1.472       .  S
N713        C714   1.356       .  A
C714        N715   1.355   1_556  A
C714       C1411   1.485       .  S
C716        N717   1.356       .  A
C716       C1392   1.475       .  S
C718        N723   1.353       .  A
C718       C1331   1.478       .  S
N719        C720   1.361       .  A
C720       C1363   1.482       .  S
N721        C722   1.354       .  A
C722        N723   1.352       .  A
C722       C1344   1.469       .  S
C724        N742   1.349       .  A
C724        C761   1.451       .  S
C724       C1408   1.466       .  S
N725        N742   1.325       .  A
N725        N747   1.320   1_565  A
N725       Co762   2.083       .  S
C726        N751   1.338       .  A
C726        C764   1.459       .  S
C726        H771   1.081       .  S
H727        C768   1.082       .  S
C728        N752   1.336       .  A
C728        C732   1.450       .  S
C728        H757   1.081       .  S
Co729       N747   2.072       .  S
Co729       N737   2.071       .  S
Co729       N769   2.069   1_545  S
Co729       N745   2.082       .  S
Co729      Cl773   2.442       .  S
N730        C768   1.339       .  A
N730        N737   1.318       .  A
N730       Co731   2.072       .  S
Co731       N734   2.076       .  S
Co731       N751   2.077       .  S
Co731       N738   2.074       .  S
Co731      Cl773   2.452       .  S
C732        N770   1.346       .  A
C732       C1315   1.457       .  S
N733        N740   1.319   1_545  A
N733        N763   1.322       .  A
N733       Co766   2.069       .  S
N734        N752   1.319       .  A
N734        N770   1.323       .  A
N735        C764   1.350       .  A
N735        N745   1.324       .  A
H736        C761   1.080   1_545  S
N737        N758   1.320       .  A
N738        N756   1.318       .  A
N738        N743   1.323       .  A
C739        N743   1.348       .  A
C739        C767   1.452       .  S
C739       C1299   1.463       .  S
N740        C755   1.342       .  A
N740       Co762   2.089       .  S
C741        N769   1.337       .  A
C741        C744   1.455       .  S
C741        H775   1.079       .  S
C744        N765   1.352       .  A
C744       C1395   1.475       .  S
N745        N751   1.319       .  A
N746        C772   1.340       .  A
N746        N748   1.320   1_565  A
N746       Co762   2.083       .  S
N747        C761   1.335   1_545  A
N748        N776   1.319       .  A
N748       Co766   2.063       .  S
H749        C772   1.081       .  S
H750        C767   1.080       .  S
N752       Co766   2.065       .  S
N753        N765   1.326       .  A
N753        N769   1.320       .  A
N753       Co762   2.094       .  S
C754        N758   1.345       .  A
C754        C768   1.459       .  S
C754       C1283   1.473       .  S
C755        C774   1.463       .  S
C755        H759   1.079       .  S
N756        C767   1.335       .  A
N756       Co766   2.065       .  S
C760        N776   1.343   1_565  A
C760        C772   1.462       .  S
C760       C1347   1.466       .  S
Co762      Cl773   2.455   1_565  S
N763        C774   1.346   1_545  A
C764       C1267   1.480       .  S
Co766      Cl773   2.441       .  S
C774       C1360   1.474       .  S
C777        N782   1.357       .  A
C777       C1248   1.473       .  S
N778        C779   1.354       .  A
C779        N780   1.354   1_556  A
C779       C1312   1.493       .  S
C781        N782   1.356       .  A
C781       C1296   1.472       .  S
C783        N788   1.361       .  A
C783       C1232   1.477       .  S
N784        C785   1.354       .  A
C785       C1280   1.463       .  S
N786        C787   1.353       .  A
C787        N788   1.360       .  A
C787       C1264   1.473       .  S
C789        N807   1.348       .  A
C789        C826   1.463       .  S
C789       C1216   1.484       .  S
N790        N807   1.322       .  A
N790        N812   1.319       .  A
N790       Co827   2.078       .  S
C791        N816   1.335       .  A
C791        C829   1.458       .  S
C791        H836   1.078       .  S
H792        C833   1.078       .  S
C793        N817   1.342       .  A
C793        C797   1.466   1_455  S
C793        H822   1.081       .  S
Co794       N812   2.083       .  S
Co794       N802   2.069   1_455  S
Co794       N834   2.067       .  S
Co794       N810   2.083   1_455  S
Co794      Cl838   2.445       .  S
N795        C833   1.342       .  A
N795        N802   1.319       .  A
N795       Co796   2.086       .  S
Co796       N799   2.068       .  S
Co796       N816   2.063       .  S
Co796       N803   2.091       .  S
Co796      Cl838   2.447   1_655  S
C797        N835   1.345       .  A
C797       C1155   1.484       .  S
N798        N805   1.320       .  A
N798        N828   1.319       .  A
N798       Co831   2.068       .  S
N799        N817   1.318   1_655  A
N799        N835   1.319       .  A
N800        C829   1.351       .  A
N800        N810   1.322       .  A
H801        C826   1.081       .  S
N802        N823   1.320       .  A
N803        N821   1.315   1_655  A
N803        N808   1.322       .  A
C804        N808   1.356   1_455  A
C804        C832   1.469       .  S
C804       C1136   1.499   1_455  S
N805        C820   1.341       .  A
N805       Co827   2.079       .  S
C806        N834   1.337       .  A
C806        C809   1.451       .  S
C806        H840   1.081       .  S
C809        N830   1.349       .  A
C809       C1203   1.465       .  S
N810        N816   1.317       .  A
N811        C837   1.337       .  A
N811        N813   1.315       .  A
N811       Co827   2.074       .  S
N812        C826   1.341       .  A
N813        N841   1.320       .  A
N813       Co831   2.080       .  S
H814        C837   1.074       .  S
H815        C832   1.074       .  S
N817       Co831   2.083       .  S
N818        N830   1.324       .  A
N818        N834   1.320       .  A
N818       Co827   2.084       .  S
C819        N823   1.345       .  A
C819        C833   1.460       .  S
C819       C1120   1.468       .  S
C820        C839   1.457       .  S
C820        H824   1.080       .  S
N821        C832   1.338       .  A
N821       Co831   2.070       .  S
C825        N841   1.354       .  A
C825        C837   1.471       .  S
C825       C1168   1.497       .  S
Co827      Cl838   2.450       .  S
N828        C839   1.345       .  A
C829       C1104   1.476       .  S
Co831      Cl838   2.449       .  S
C839       C1187   1.462       .  S
C842        N843   1.361       .  A
C842       C1088   1.478       .  S
N843        C844   1.357       .  A
C844        N845   1.352       .  A
C844       C1171   1.468       .  S
C846        N847   1.355       .  A
C846       C1184   1.469       .  S
C848        N849   1.356       .  A
C848       C1235   1.473       .  S
N849        C850   1.357       .  A
C850        N851   1.357       .  A
C850       C1139   1.478       .  S
C852        N853   1.358       .  A
C852       C1152   1.479       .  S
C854        N859   1.357       .  A
C854       C1075   1.470       .  S
N855        C856   1.356       .  A
C856       C1123   1.471       .  S
N857        C858   1.355       .  A
C858        N859   1.356       .  A
C858       C1107   1.482       .  S
C860        N865   1.357       .  A
C860       C1328   1.481       .  S
N861        C862   1.357       .  A
C862       C1219   1.479       .  S
N863        C864   1.360       .  A
C864        N865   1.356       .  A
C864       C1200   1.495       .  S
C866        N884   1.351       .  A
C866        C903   1.458       .  S
C866       C1024   1.482       .  S
N867        N884   1.325       .  A
N867        N889   1.320       .  A
N867       Co904   2.089       .  S
C868        N893   1.338       .  A
C868        C906   1.463       .  S
C868        H913   1.081       .  S
H869        C910   1.082       .  S
C870        N894   1.332       .  A
C870        C874   1.447       .  S
C870        H899   1.079       .  S
Co871       N889   2.073       .  S
Co871       N879   2.079       .  S
Co871       N911   2.074       .  S
Co871       N887   2.081       .  S
Co871      Cl915   2.437       .  S
N872        C910   1.341       .  A
N872        N879   1.318       .  A
N872       Co873   2.074       .  S
Co873       N876   2.085       .  S
Co873       N893   2.085       .  S
Co873       N880   2.075       .  S
Co873      Cl915   2.457       .  S
C874        N912   1.349       .  A
C874        C963   1.460       .  S
N875        N882   1.317       .  A
N875        N905   1.320       .  A
N875       Co908   2.068       .  S
N876        N894   1.320       .  A
N876        N912   1.326       .  A
N877        C906   1.349       .  A
N877        N887   1.324       .  A
H878        C903   1.081       .  S
N879        N900   1.322       .  A
N880        N898   1.319       .  A
N880        N885   1.324       .  A
C881        N885   1.347       .  A
C881        C909   1.448       .  S
C881        C947   1.457       .  S
N882        C897   1.341       .  A
N882       Co904   2.083       .  S
C883        N911   1.336       .  A
C883        C886   1.455       .  S
C883        H917   1.079       .  S
C886        N907   1.351       .  A
C886       C1008   1.474       .  S
N887        N893   1.319       .  A
N888        C914   1.344       .  A
N888        N890   1.319       .  A
N888       Co904   2.091       .  S
N889        C903   1.334       .  A
N890        N918   1.318       .  A
N890       Co908   2.065       .  S
H891        C914   1.079       .  S
H892        C909   1.082       .  S
N894       Co908   2.063       .  S
N895        N907   1.326       .  A
N895        N911   1.319       .  A
N895       Co904   2.083       .  S
C896        N900   1.348       .  A
C896        C910   1.460       .  S
C896       C1056   1.478       .  S
C897        C916   1.466       .  S
C897        H901   1.081       .  S
N898        C909   1.334       .  A
N898       Co908   2.061       .  S
C902        N918   1.344       .  A
C902        C914   1.468       .  S
C902        C976   1.477       .  S
Co904      Cl915   2.463       .  S
N905        C916   1.345       .  A
C906       C1040   1.484       .  S
Co908      Cl915   2.434       .  S
C916        C995   1.484       .  S
C919        N924   1.356       .  A
N920        C921   1.359       .  A
C921        N922   1.356       .  A
C921       C1059   1.484       .  S
C923        N924   1.355       .  A
C923       C1043   1.465       .  S
C925        N930   1.360       .  A
C925       C1091   1.476       .  S
N926        C927   1.356       .  A
C927        C960   1.481       .  S
N928        C929   1.352       .  A
C929        N930   1.357       .  A
C929        C944   1.480       .  S
C931        N936   1.355       .  A
N932        C933   1.355       .  A
C933        N934   1.358       .  A
C933       C1027   1.480       .  S
C935        N936   1.358       .  A
C935       C1011   1.481       .  S
C937        N942   1.359       .  A
C937       C1376   1.473       .  S
N938        C939   1.357       .  A
C939        N940   1.354       .  A
C939        C992   1.478       .  S
C941        N942   1.359       .  A
C941        C979   1.488       .  S
C943        H950   1.083       .  S
C943        C944   1.409       .  A
C943        C948   1.398       .  A
C944        C945   1.420       .  A
C945        C946   1.406       .  A
C945        C952   1.518       .  S
C946        H951   1.083       .  S
C946        C947   1.399       .  A
C947        C948   1.407       .  A
C948        C949   1.521       .  S
C949        F953   1.384       .  S
C949        F954   1.382       .  S
C949        F955   1.384       .  S
C952        F956   1.382       .  S
C952        F957   1.383       .  S
C952        F958   1.385       .  S
C959        H966   1.082       .  S
C959        C960   1.409       .  A
C959        C964   1.399       .  A
C960        C961   1.420       .  A
C961        C962   1.407       .  A
C961        C968   1.518       .  S
C962        H967   1.083       .  S
C962        C963   1.399       .  A
C963        C964   1.409       .  A
C964        C965   1.522       .  S
C965        F969   1.385       .  S
C965        F970   1.384       .  S
C965        F971   1.382       .  S
C968        F972   1.383       .  S
C968        F973   1.380       .  S
C968        F974   1.385       .  S
C975        H982   1.083       .  S
C975        C976   1.405       .  A
C975        C980   1.406       .  A
C976        C977   1.413       .  A
C977        C978   1.403       .  A
C977        C984   1.518       .  S
C978        H983   1.080       .  S
C978        C979   1.406       .  A
C979        C980   1.421       .  A
C980        C981   1.521       .  S
C981        F985   1.385       .  S
C981        F986   1.382       .  S
C981        F987   1.384       .  S
C984        F988   1.380       .  S
C984        F989   1.384       .  S
C984        F990   1.385       .  S
C991        H998   1.083       .  S
C991        C992   1.400       .  A
C991        C996   1.404       .  A
C992        C993   1.417       .  A
C993        C994   1.404       .  A
C993       C1000   1.517       .  S
C994        H999   1.082       .  S
C994        C995   1.403       .  A
C995        C996   1.424       .  A
C996        C997   1.521       .  S
C997       F1001   1.385       .  S
C997       F1002   1.383       .  S
C997       F1003   1.382       .  S
C1000      F1004   1.383       .  S
C1000      F1005   1.381       .  S
C1000      F1006   1.383       .  S
C1007      H1014   1.084       .  S
C1007      C1008   1.401       .  A
C1007      C1012   1.407       .  A
C1008      C1009   1.415       .  A
C1009      C1010   1.400       .  A
C1009      C1016   1.518       .  S
C1010      H1015   1.085       .  S
C1010      C1011   1.404       .  A
C1011      C1012   1.420       .  A
C1012      C1013   1.517       .  S
C1013      F1017   1.383       .  S
C1013      F1018   1.384       .  S
C1016      F1020   1.383       .  S
C1016      F1021   1.382       .  S
C1016      F1022   1.385       .  S
C1023      H1030   1.082       .  S
C1023      C1024   1.404       .  A
C1023      C1028   1.401       .  A
C1024      C1025   1.418       .  A
C1025      C1026   1.407       .  A
C1025      C1032   1.518       .  S
C1026      H1031   1.083       .  S
C1026      C1027   1.404       .  A
C1027      C1028   1.419       .  A
C1028      C1029   1.522       .  S
C1029      F1033   1.385       .  S
C1029      F1035   1.384       .  S
C1032      F1036   1.383       .  S
C1032      F1037   1.383       .  S
C1032      F1038   1.383       .  S
C1039      H1046   1.082       .  S
C1039      C1040   1.408       .  A
C1039      C1044   1.404       .  A
C1040      C1041   1.423       .  A
C1041      C1042   1.405       .  A
C1041      C1048   1.520       .  S
C1042      H1047   1.084       .  S
C1042      C1043   1.398       .  A
C1043      C1044   1.408       .  A
C1044      C1045   1.516       .  S
C1045      F1049   1.385       .  S
C1045      F1050   1.382       .  S
C1045      F1051   1.383       .  S
C1048      F1052   1.383       .  S
C1048      F1053   1.382       .  S
C1048      F1054   1.385       .  S
C1055      H1062   1.083       .  S
C1055      C1056   1.403       .  A
C1055      C1060   1.407       .  A
C1056      C1057   1.417       .  A
C1057      C1058   1.402       .  A
C1057      C1064   1.521       .  S
C1058      H1063   1.083       .  S
C1058      C1059   1.405       .  A
C1059      C1060   1.421       .  A
C1060      C1061   1.520       .  S
C1061      F1065   1.385       .  S
C1061      F1066   1.384       .  S
C1064      F1068   1.384       .  S
C1064      F1069   1.382       .  S
C1064      F1070   1.385       .  S
C1071      H1078   1.083       .  S
C1071      C1076   1.404       .  A
C1072      C1073   1.414       .  A
C1073      C1074   1.404       .  A
C1073      C1080   1.518       .  S
C1074      H1079   1.083       .  S
C1074      C1075   1.402       .  A
C1076      C1077   1.520       .  S
C1077      F1081   1.385       .  S
C1077      F1082   1.381       .  S
C1077      F1083   1.383       .  S
C1080      F1084   1.384       .  S
C1080      F1085   1.382       .  S
C1080      F1086   1.384       .  S
C1087      H1094   1.083       .  S
C1087      C1088   1.402       .  A
C1087      C1092   1.404       .  A
C1089      C1090   1.407       .  A
C1089      C1096   1.521       .  S
C1090      H1095   1.083       .  S
C1090      C1091   1.403       .  A
C1092      C1093   1.519       .  S
C1093      F1097   1.385       .  S
C1093      F1099   1.380       .  S
C1096      F1100   1.383       .  S
C1096      F1102   1.385       .  S
C1103      H1110   1.083       .  S
C1103      C1104   1.404       .  A
C1103      C1108   1.405       .  A
C1104      C1105   1.418       .  A
C1105      C1106   1.402       .  A
C1105      C1112   1.522       .  S
C1106      H1111   1.083       .  S
C1106      C1107   1.405       .  A
C1107      C1108   1.420       .  A
C1108      C1109   1.521       .  S
C1109      F1113   1.385       .  S
C1109      F1114   1.382       .  S
C1109      F1115   1.383       .  S
C1112      F1116   1.381       .  S
C1112      F1117   1.383       .  S
C1112      F1118   1.385       .  S
C1119      H1126   1.084       .  S
C1119      C1120   1.400       .  A
C1119      C1124   1.401       .  A
C1120      C1121   1.414       .  A
C1121      C1122   1.406       .  A
C1121      C1128   1.517       .  S
C1122      H1127   1.083       .  S
C1122      C1123   1.403       .  A
C1123      C1124   1.418       .  A
C1124      C1125   1.521       .  S
C1125      F1129   1.385       .  S
C1125      F1131   1.383       .  S
C1128      F1132   1.381       .  S
C1128      F1133   1.383       .  S
C1128      F1134   1.385       .  S
C1135      H1142   1.081       .  S
C1135      C1136   1.409       .  A
C1135      C1140   1.402       .  A
C1136      C1137   1.429   1_655  A
C1137      C1138   1.410   1_455  A
C1137      C1144   1.519       .  S
C1138      H1143   1.083   1_655  S
C1138      C1139   1.400       .  A
C1139      C1140   1.415       .  A
C1140      C1141   1.522       .  S
C1141      F1145   1.385       .  S
C1141      F1146   1.383       .  S
C1141      F1147   1.384       .  S
C1144      F1148   1.382       .  S
C1144      F1149   1.383       .  S
C1144      F1150   1.385       .  S
C1151      H1158   1.083       .  S
C1151      C1152   1.402       .  A
C1151      C1156   1.402       .  A
C1152      C1153   1.416   1_655  A
C1153      C1154   1.406       .  A
C1153      C1160   1.518       .  S
C1154      H1159   1.082       .  S
C1154      C1155   1.406   1_455  A
C1155      C1156   1.424       .  A
C1156      C1157   1.522       .  S
C1157      F1161   1.385       .  S
C1157      F1162   1.384       .  S
C1157      F1163   1.382       .  S
C1160      F1164   1.384       .  S
C1160      F1165   1.382       .  S
C1160      F1166   1.385       .  S
C1167      H1174   1.082       .  S
C1167      C1168   1.413       .  A
C1167      C1172   1.403       .  A
C1168      C1169   1.428       .  A
C1169      C1170   1.406       .  A
C1169      C1176   1.518       .  S
C1170      H1175   1.083       .  S
C1170      C1171   1.397       .  A
C1171      C1172   1.408       .  A
C1172      C1173   1.519       .  S
C1173      F1177   1.385       .  S
C1173      F1178   1.382       .  S
C1173      F1179   1.383       .  S
C1176      F1180   1.383       .  S
C1176      F1181   1.383       .  S
C1176      F1182   1.385       .  S
C1183      H1190   1.084       .  S
C1183      C1184   1.403       .  A
C1183      C1188   1.404       .  A
C1184      C1185   1.419       .  A
C1185      C1186   1.400       .  A
C1185      C1192   1.521       .  S
C1186      H1191   1.084       .  S
C1186      C1187   1.398       .  A
C1187      C1188   1.413       .  A
C1188      C1189   1.518       .  S
C1189      F1193   1.385       .  S
C1189      F1194   1.382       .  S
C1189      F1195   1.384       .  S
C1192      F1197   1.383       .  S
C1192      F1198   1.385       .  S
C1199      H1206   1.081       .  S
C1199      C1200   1.412       .  A
C1199      C1204   1.404       .  A
C1200      C1201   1.428       .  A
C1201      C1202   1.407       .  A
C1201      C1208   1.521       .  S
C1202      H1207   1.083       .  S
C1202      C1203   1.396       .  A
C1203      C1204   1.409       .  A
C1204      C1205   1.520       .  S
C1205      F1209   1.384       .  S
C1205      F1210   1.383       .  S
C1205      F1211   1.384       .  S
C1208      F1212   1.384       .  S
C1208      F1213   1.383       .  S
C1208      F1214   1.385       .  S
C1215      H1222   1.082       .  S
C1215      C1216   1.407       .  A
C1215      C1220   1.408       .  A
C1216      C1217   1.421       .  A
C1217      C1218   1.401       .  A
C1217      C1224   1.521       .  S
C1218      H1223   1.083       .  S
C1218      C1219   1.402       .  A
C1219      C1220   1.416       .  A
C1220      C1221   1.519       .  S
C1221      F1225   1.385       .  S
C1221      F1226   1.384       .  S
C1221      F1227   1.381       .  S
C1224      F1228   1.384       .  S
C1224      F1229   1.382       .  S
C1224      F1230   1.385       .  S
C1231      H1238   1.083       .  S
C1231      C1236   1.408       .  A
C1232      C1233   1.420       .  A
C1233      C1234   1.402       .  A
C1233      C1240   1.522       .  S
C1234      H1239   1.084       .  S
C1234      C1235   1.401       .  A
C1236      C1237   1.517       .  S
C1237      F1243   1.384       .  S
C1240      F1244   1.385       .  S
C1247      H1254   1.083       .  S
C1247      C1252   1.404       .  A
C1248      C1249   1.416       .  A
C1249      C1250   1.405       .  A
C1249      C1256   1.519       .  S
C1250      H1255   1.083       .  S
C1250      C1251   1.403       .  A
C1252      C1253   1.521       .  S
C1253      F1257   1.385       .  S
C1253      F1259   1.382       .  S
C1256      F1260   1.382       .  S
C1256      F1262   1.384       .  S
C1263      H1270   1.083       .  S
C1263      C1264   1.403       .  A
C1263      C1268   1.404       .  A
C1264      C1265   1.415       .  A
C1265      C1266   1.406       .  A
C1265      C1272   1.520       .  S
C1266      H1271   1.082       .  S
C1266      C1267   1.406       .  A
C1267      C1268   1.418       .  A
C1268      C1269   1.520       .  S
C1269      F1273   1.385       .  S
C1269      F1274   1.384       .  S
C1269      F1275   1.382       .  S
C1272      F1276   1.384       .  S
C1272      F1277   1.383       .  S
C1272      F1278   1.384       .  S
C1279      H1286   1.084       .  S
C1279      C1280   1.398       .  A
C1279      C1284   1.403       .  A
C1280      C1281   1.415       .  A
C1281      C1282   1.401       .  A
C1281      C1288   1.521       .  S
C1282      H1287   1.082       .  S
C1282      C1283   1.403       .  A
C1283      C1284   1.420       .  A
C1284      C1285   1.520       .  S
C1285      F1289   1.384       .  S
C1285      F1290   1.383       .  S
C1285      F1291   1.383       .  S
C1288      F1292   1.383       .  S
C1288      F1294   1.385       .  S
C1295      H1302   1.083       .  S
C1295      C1296   1.405       .  A
C1295      C1300   1.400       .  A
C1296      C1297   1.416       .  A
C1297      C1298   1.404       .  A
C1297      C1304   1.518       .  S
C1298      H1303   1.083       .  S
C1298      C1299   1.401       .  A
C1299      C1300   1.414       .  A
C1300      C1301   1.522       .  S
C1301      F1305   1.385       .  S
C1301      F1306   1.381       .  S
C1301      F1307   1.384       .  S
C1304      F1308   1.382       .  S
C1304      F1309   1.383       .  S
C1304      F1310   1.385       .  S
C1311      H1318   1.081       .  S
C1311      C1312   1.414       .  A
C1311      C1316   1.398       .  A
C1312      C1313   1.429       .  A
C1313      C1314   1.406       .  A
C1313      C1320   1.522       .  S
C1314      H1319   1.083       .  S
C1314      C1315   1.395       .  A
C1315      C1316   1.405       .  A
C1316      C1317   1.521       .  S
C1317      F1321   1.384       .  S
C1317      F1322   1.383       .  S
C1317      F1323   1.382       .  S
C1320      F1324   1.383       .  S
C1320      F1325   1.383       .  S
C1320      F1326   1.385       .  S
C1327      H1334   1.083       .  S
C1327      C1332   1.402       .  A
C1328      C1329   1.420       .  A
C1329      C1330   1.408       .  A
C1329      C1336   1.519       .  S
C1330      H1335   1.083       .  S
C1330      C1331   1.403       .  A
C1332      C1333   1.523       .  S
C1333      F1339   1.384       .  S
C1336      F1340   1.383       .  S
C1343      H1350   1.083       .  S
C1343      C1344   1.402       .  A
C1343      C1348   1.400       .  A
C1344      C1345   1.415       .  A
C1345      C1346   1.403       .  A
C1345      C1352   1.518       .  S
C1346      H1351   1.083       .  S
C1346      C1347   1.401       .  A
C1347      C1348   1.413       .  A
C1348      C1349   1.512       .  S
C1349      F1353   1.385       .  S
C1349      F1354   1.375       .  S
C1349      F1355   1.383   1_565  S
C1352      F1356   1.382       .  S
C1352      F1357   1.383       .  S
C1352      F1358   1.385       .  S
C1359      H1366   1.083       .  S
C1359      C1360   1.402   1_545  A
C1359      C1364   1.404   1_545  A
C1360      C1361   1.416       .  A
C1361      C1362   1.404       .  A
C1361      C1368   1.518       .  S
C1362      H1367   1.083       .  S
C1362      C1363   1.405       .  A
C1363      C1364   1.421       .  A
C1364      C1365   1.520   1_565  S
C1365      F1369   1.385       .  S
C1365      F1370   1.383       .  S
C1365      F1371   1.384       .  S
C1368      F1372   1.381       .  S
C1368      F1373   1.384       .  S
C1368      F1374   1.385       .  S
C1375      H1382   1.083       .  S
C1375      C1380   1.405       .  A
C1376      C1377   1.415       .  A
C1377      C1378   1.405       .  A
C1377      C1384   1.517       .  S
C1378      H1383   1.083       .  S
C1379      C1380   1.416       .  A
C1380      C1381   1.519       .  S
C1381      F1387   1.382       .  S
C1384      F1388   1.381       .  S
C1391      H1398   1.083       .  S
C1391      C1392   1.404       .  A
C1391      C1396   1.405       .  A
C1392      C1393   1.417       .  A
C1393      C1394   1.403       .  A
C1393      C1400   1.520       .  S
C1394      H1399   1.065       .  S
C1394      C1395   1.399       .  A
C1395      C1396   1.416       .  A
C1396      C1397   1.518       .  S
C1397      F1401   1.385       .  S
C1397      F1402   1.383       .  S
C1397      F1403   1.382       .  S
C1400      F1404   1.384       .  S
C1400      F1405   1.383       .  S
C1400      F1406   1.383       .  S
C1407      H1414   1.083       .  S
C1407      C1408   1.398       .  A
C1407      C1412   1.407       .  A
C1408      C1409   1.412       .  A
C1409      C1410   1.403       .  A
C1409      C1416   1.522   1_565  S
C1410      H1415   1.083       .  S
C1410      C1411   1.408       .  A
C1411      C1412   1.423       .  A
C1412      C1413   1.520       .  S
C1413      F1417   1.385       .  S
C1413      F1418   1.383       .  S
C1413      F1419   1.383       .  S
C1416      F1420   1.384       .  S
C1416      F1421   1.381       .  S
C1416      F1422   1.384       .  S
