geometry optimzed in LAMMPS
_audit_creation_date              2020-11-30 
_audit_creation_method            'lammps2cif' 
_symmetry_space_group_name_H-M    'P1' 
_symmetry_Int_Tables_number       1 
_symmetry_cell_setting            triclinic 
loop_ 
_symmetry_equiv_pos_as_xyz 
  x,y,z 
_cell_length_a                    42.01696976916845 
_cell_length_b                    41.98984818685166 
_cell_length_c                    40.02312295979568 
_cell_angle_alpha                 90.13970773022781 
_cell_angle_beta                  90.20747482814014 
_cell_angle_gamma                 120.07162907353826 
loop_ 
_atom_site_label 
_atom_site_type_symbol 
_atom_site_fract_x 
_atom_site_fract_y 
_atom_site_fract_z 
_atom_site_charge 
C1          C  0.49643422  0.71978708  0.10733224     0.02840
C2          C  0.49790282  0.72038157  0.14243770    -0.13310
C3          C  0.50143138  0.75061872  0.16046263     0.00340
C4          C  0.50211700  0.78001753  0.14338734    -0.11830
C5          C  0.49967633  0.77941202  0.10844687     0.02830
C6          C  0.49782017  0.74977067  0.09044940    -0.11260
H7          H  0.49667807  0.69739969  0.15585455     0.08430
H8          H  0.50379402  0.80299192  0.15731492     0.05960
H9          H  0.49745885  0.75015830  0.06339184     0.05800
C10         C  0.49722556  0.71862380  0.35680168     0.02840
C11         C  0.50068923  0.72036475  0.32200925    -0.13310
C12         C  0.50346165  0.75053371  0.30463137     0.00340
C13         C  0.50511039  0.78010295  0.32242494    -0.11830
C14         C  0.50089131  0.77853574  0.35739697     0.02830
C15         C  0.49560995  0.74681214  0.37422643    -0.11260
H16         H  0.50057995  0.69794900  0.30840797     0.08430
H17         H  0.50859075  0.80386891  0.30875024     0.05960
H18         H  0.49063695  0.74404074  0.40086155     0.05800
C19         C  0.25605407  0.78136975  0.35324022     0.02840
C20         C  0.24972819  0.78563413  0.31943244    -0.13310
C21         C  0.21967701  0.75753124  0.30221008     0.00340
C22         C  0.19276187  0.72727450  0.31982129    -0.11830
C23         C  0.19694302  0.72373514  0.35414838     0.02830
C24         C  0.22945625  0.74986754  0.37026222    -0.11260
H25         H  0.26876379  0.81013915  0.30596441     0.08430
H26         H  0.16883661  0.70622352  0.30660455     0.05960
H27         H  0.23377367  0.74561313  0.39617732     0.05800
C28         C  0.25294793  0.78694881  0.10673349     0.02840
C29         C  0.24997422  0.78807006  0.14157818    -0.13310
C30         C  0.21972258  0.75976706  0.15814225     0.00340
C31         C  0.19249257  0.73017667  0.13975229    -0.11830
C32         C  0.19501451  0.72882015  0.10491153     0.02830
C33         C  0.22543362  0.75721271  0.08846718    -0.11260
H34         H  0.27144974  0.81065390  0.15583580     0.08430
H35         H  0.16933374  0.70805557  0.15263738     0.05960
H36         H  0.22799857  0.75588898  0.06163375     0.05800
C37         C  0.19261158  0.46931127  0.10367994     0.02840
C38         C  0.19130919  0.46810783  0.13868030    -0.13310
C39         C  0.22005961  0.46867402  0.15724946     0.00340
C40         C  0.24922350  0.46861355  0.14024471    -0.11830
C41         C  0.25016847  0.46892124  0.10525125     0.02830
C42         C  0.22193949  0.46945974  0.08701208    -0.11260
H43         H  0.16839728  0.46771586  0.15140234     0.08430
H44         H  0.27173566  0.46933641  0.15420489     0.05960
H45         H  0.22324917  0.47089445  0.05997368     0.05800
C46         C  0.19524927  0.47571224  0.35468864     0.02840
C47         C  0.19409477  0.47313683  0.31974948    -0.13310
C48         C  0.22261652  0.47270495  0.30211456     0.00340
C49         C  0.25306148  0.47605910  0.31978480    -0.11830
C50         C  0.25411434  0.47730178  0.35494881     0.02830
C51         C  0.22450534  0.47625441  0.37222471    -0.11260
H52         H  0.17103613  0.47177322  0.30622665     0.08430
H53         H  0.27597351  0.47765254  0.30603037     0.05960
H54         H  0.22413825  0.47599907  0.39927526     0.05800
C55         C  0.77567677  0.26255040  0.35659507     0.02840
C56         C  0.77856690  0.26021000  0.32192230    -0.13310
C57         C  0.75057480  0.23106923  0.30367671     0.00340
C58         C  0.71960036  0.20397745  0.32044932    -0.11830
C59         C  0.71692542  0.20516690  0.35536922     0.02830
C60         C  0.74563424  0.23416591  0.37338528    -0.11260
H61         H  0.80214716  0.28173314  0.30898027     0.08430
H62         H  0.69717927  0.18233773  0.30618766     0.05960
H63         H  0.74407465  0.23533453  0.40033252     0.05800
C64         C  0.77606005  0.26217246  0.10616495     0.02840
C65         C  0.74583907  0.23351257  0.08929692    -0.13310
C66         C  0.71814873  0.20360077  0.10691082     0.00340
C67         C  0.72038833  0.20323249  0.14192202    -0.11830
C68         C  0.74941625  0.23247856  0.15923577     0.02830
C69         C  0.77734071  0.26159025  0.14119223    -0.11260
H70         H  0.74382162  0.23454155  0.06238827     0.08430
H71         H  0.69899575  0.18053221  0.15584509     0.05960
H72         H  0.79982931  0.28415983  0.15454049     0.05800
C73         C  0.71916679  0.52089610  0.10648294     0.02840
C74         C  0.74742557  0.51935788  0.08944324    -0.13310
C75         C  0.77778656  0.52251851  0.10701951     0.00340
C76         C  0.77933266  0.52621814  0.14187108    -0.11830
C77         C  0.75092482  0.52725905  0.15919641     0.02830
C78         C  0.72099953  0.52491443  0.14136926    -0.11260
H79         H  0.74582079  0.51576397  0.06253740     0.08430
H80         H  0.80222365  0.52742948  0.15557327     0.05960
H81         H  0.69860033  0.52495527  0.15468419     0.05800
C82         C  0.71251603  0.51115541  0.35511119     0.02840
C83         C  0.71655781  0.51836661  0.32060350    -0.13310
C84         C  0.74632803  0.52013612  0.30325723     0.00340
C85         C  0.77390319  0.51772464  0.32093006    -0.11830
C86         C  0.77117776  0.51229765  0.35550756     0.02830
C87         C  0.74045401  0.50880409  0.37250520    -0.11260
H88         H  0.69582249  0.52118757  0.30692250     0.08430
H89         H  0.79716111  0.51942357  0.30768007     0.05960
H90         H  0.73798836  0.50339281  0.39910589     0.05800
C91         C  0.45993618  0.19994388  0.35532212     0.02840
C92         C  0.46181818  0.22972731  0.37296042    -0.13310
C93         C  0.46149587  0.25862079  0.35570369     0.00340
C94         C  0.45842669  0.25709214  0.32071837    -0.11830
C95         C  0.45646722  0.22727190  0.30292342     0.02830
C96         C  0.45710778  0.19872593  0.32040108    -0.11260
H97         H  0.46461434  0.23093595  0.39993727     0.08430
H98         H  0.45807843  0.27932854  0.30733870     0.05960
H99         H  0.45627213  0.17595649  0.30679648     0.05800
C100        C  0.45910676  0.20060693  0.10605966     0.02840
C101        C  0.45436011  0.19755351  0.14079516    -0.13310
C102        C  0.45028324  0.22402528  0.15870287     0.00340
C103        C  0.45043864  0.25318671  0.14161811    -0.11830
C104        C  0.45534865  0.25662735  0.10687341     0.02830
C105        C  0.45982397  0.23019423  0.08924798    -0.11260
H106        H  0.45499600  0.17533362  0.15392924     0.08430
H107        H  0.44762182  0.27376619  0.15561918     0.05960
H108        H  0.46502434  0.23317832  0.06262018     0.05800
O109        O  0.51648815  0.58595274  0.04571105    -0.75580
O110        O  0.46526491  0.57724355  0.01835451    -0.54490
C111        C  0.49194631  0.59482937  0.03919373     0.78150
O112        O  0.57566727  0.52162839  0.41554947    -0.60180
O113        O  0.56990053  0.47280321  0.44567973    -0.53210
C114        C  0.58573343  0.49833165  0.42380022     0.70160
O115        O  0.51205243  0.58269051  0.41514023    -0.74740
O116        O  0.46357578  0.57632573  0.44577084    -0.55300
C117        C  0.48812068  0.59207785  0.42310352     0.76170
O118        O  0.57760637  0.52322393  0.04684375    -0.59880
O119        O  0.57160904  0.47438138  0.01691703    -0.53000
C120        C  0.58789235  0.50000219  0.03887837     0.72760
Zr121      Zr  0.52985928  0.53739355  0.03128612     2.54710
O122        O  0.58801429  0.59518469  0.03346676    -0.80450
O123        O  0.52626888  0.53196137  0.09188069    -0.93870
Zr124      Zr  0.52841439  0.53643482  0.43169005     2.64680
O125        O  0.58545783  0.59542023  0.43246665    -0.98820
O126        O  0.52656127  0.53380882  0.37089221    -0.80880
O127        O  0.51219198  0.55535916  0.48156105    -0.84240
O128        O  0.54760068  0.52018340  0.48143917    -2.18950
O129        O  0.45032306  0.39637743  0.04867320    -0.67630
O130        O  0.49982315  0.40287566  0.01927829    -0.52190
C131        C  0.47407192  0.38685592  0.04096428     0.71140
O132        O  0.38570537  0.45432356  0.41810932    -0.60540
O133        O  0.39480715  0.50599325  0.44498979    -0.52510
C134        C  0.37732065  0.47931892  0.42414969     0.72940
O135        O  0.44747414  0.39239700  0.41869056    -0.71930
O136        O  0.49988618  0.40237231  0.44537036    -0.50610
C137        C  0.47251036  0.38420460  0.42542226     0.74330
O138        O  0.38798694  0.45769793  0.04800075    -0.67260
O139        O  0.39445464  0.50668404  0.01802666    -0.54460
C140        C  0.37840184  0.48147502  0.04014918     0.72710
Zr141      Zr  0.43547828  0.44319645  0.03228858     2.77540
O142        O  0.37722107  0.38536506  0.03250521    -0.98010
O143        O  0.43906725  0.44706065  0.09300852    -0.78830
Zr144      Zr  0.43435844  0.44128862  0.43295074     2.70070
O145        O  0.37646403  0.38323639  0.43067803    -0.80080
O146        O  0.43918084  0.44552431  0.37235203    -0.99160
Zr147      Zr  0.44682434  0.52446576  0.48204719     2.21500
Zr148      Zr  0.51764689  0.45470059  0.48203128     2.11130
O149        O  0.45214196  0.42406628  0.48280282    -2.47850
O150        O  0.41621528  0.45905919  0.48245863    -0.79870
O151        O  0.50070459  0.47233789  0.03251319    -0.72070
O152        O  0.46333100  0.50636996  0.43153619    -2.33020
O153        O  0.46484267  0.50821998  0.03270486    -2.29230
O154        O  0.49950174  0.47113588  0.43148726    -0.73830
H155        H  0.57399173  0.53100435  0.48134956     0.78170
H156        H  0.45485200  0.51381900  0.41222624     0.79260
H157        H  0.44161120  0.39769352  0.48315054     0.81480
H158        H  0.45710649  0.51651174  0.05193196     0.79090
H159        H  0.50074061  0.52587723  0.36495236     0.42120
H160        H  0.46351318  0.44827331  0.36744934     0.41100
H161        H  0.37327809  0.37326487  0.45358169     0.40770
H162        H  0.38175296  0.36812846  0.01920603     0.38710
H163        H  0.46468946  0.45366599  0.09835013     0.41840
H164        H  0.50412073  0.53321695  0.09799711     0.36620
H165        H  0.59081506  0.60551782  0.01075150     0.42740
H166        H  0.60216548  0.59167362  0.44733458     0.39150
H167        H  0.37461767  0.37640352  0.05575235     0.44070
H168        H  0.54721444  0.55536243  0.10017250     0.42800
H169        H  0.59580377  0.59768138  0.40983496     0.42930
H170        H  0.42124384  0.42047838  0.36429379     0.43290
O171        O  0.04713206  0.59056734  0.41552723    -0.75580
O172        O  0.08972116  0.58200283  0.44365452    -0.54490
C173        C  0.08040898  0.59894220  0.42257255     0.78150
O174        O  0.92409874  0.52943413  0.04748989    -0.60180
O175        O  0.88106522  0.48089032  0.01725805    -0.53210
C176        C  0.89049887  0.50615172  0.03951468     0.70160
O177        O  0.04818674  0.59277430  0.04373243    -0.74740
O178        O  0.09028065  0.58268222  0.01684254    -0.55300
C179        C  0.08129282  0.60078958  0.03693956     0.76170
O180        O  0.92231961  0.52948767  0.41576729    -0.59880
O181        O  0.87978627  0.47890573  0.44416981    -0.53000
C182        C  0.88897396  0.50522974  0.42323151     0.72760
Zr183      Zr  0.98459365  0.54346327  0.43097314     2.54710
O184        O  0.98573756  0.60198514  0.43163318    -0.80450
O185        O  0.98326541  0.54064710  0.37016912    -0.93870
Zr186      Zr  0.98580770  0.54408868  0.03038762     2.64680
O187        O  0.98579058  0.60209397  0.03014120    -0.98820
O188        O  0.98793037  0.54314837  0.09117586    -0.80880
O189        O  0.02077403  0.56162386  0.48048796    -0.84240
O190        O  0.94980926  0.52716825  0.48088495    -2.18950
O191        O  0.92059261  0.39928952  0.41749948    -0.67630
O192        O  0.87868995  0.40879874  0.44537503    -0.52190
C193        C  0.88756331  0.39074395  0.42516989     0.71140
O194        O  0.04598170  0.45911486  0.04192415    -0.60540
O195        O  0.08899669  0.51045312  0.01486406    -0.52510
C196        C  0.07941231  0.48283178  0.03434971     0.72940
O197        O  0.92216806  0.40034238  0.04394709    -0.71930
O198        O  0.87955857  0.40931093  0.01717910    -0.50610
C199        C  0.88863358  0.39103262  0.03688253     0.74330
O200        O  0.04387025  0.46044429  0.41571262    -0.67260
O201        O  0.08758018  0.51077297  0.44333527    -0.54460
C202        C  0.07754243  0.48411650  0.42229990     0.72710
Zr203      Zr  0.98285373  0.44804708  0.43104680     2.77540
O204        O  0.98329216  0.39027401  0.42959334    -0.98010
O205        O  0.98148251  0.45150150  0.37040010    -0.78830
Zr206      Zr  0.98442918  0.44905277  0.03054235     2.70070
O207        O  0.98181081  0.39011762  0.03632557    -0.80080
O208        O  0.98678258  0.45719150  0.09090991    -0.99160
Zr209      Zr  0.05484551  0.53027758  0.48025678     2.21500
Zr210      Zr  0.91429784  0.46169489  0.48107998     2.11130
O211        O  0.94863235  0.43068914  0.48101379    -2.47850
O212        O  0.01900306  0.46495847  0.48050822    -0.79870
O213        O  0.94792515  0.47823646  0.43024302    -0.72070
O214        O  0.02103284  0.51407553  0.03111838    -2.33020
O215        O  0.01937621  0.51308034  0.43000218    -2.29230
O216        O  0.94917305  0.47892526  0.03161248    -0.73830
H217        H  0.93421174  0.53795746  0.48103038     0.78170
H218        H  0.03737183  0.52194113  0.05021559     0.79260
H219        H  0.93281183  0.40432169  0.48108347     0.81480
H220        H  0.03505506  0.52055704  0.41061580     0.79090
H221        H  0.00998134  0.54132778  0.09654384     0.42120
H222        H  0.96490408  0.45931181  0.09615647     0.41100
H223        H  0.98251285  0.38238267  0.01307761     0.40770
H224        H  0.96434315  0.37425151  0.44587612     0.38710
H225        H  0.96096308  0.45603677  0.36557675     0.41840
H226        H  0.00181662  0.53369435  0.36415485     0.36620
H227        H  0.99500546  0.61221048  0.45420623     0.42740
H228        H  0.96418483  0.59728252  0.01637881     0.39150
H229        H  0.97273096  0.37931733  0.40750832     0.44070
H230        H  0.99423710  0.56659518  0.36303088     0.42800
H231        H  0.97901436  0.60480689  0.05321089     0.42930
H232        H  0.98093778  0.43292880  0.09993329     0.43290
O233        O  0.51693950  0.92935158  0.41709684    -0.75580
O234        O  0.46768966  0.88739232  0.44737903    -0.54490
C235        C  0.49300082  0.89625223  0.42544256     0.78150
O236        O  0.57973604  0.05678793  0.04786002    -0.60180
O237        O  0.57362321  0.09909751  0.01683215    -0.53210
C238        C  0.58944923  0.08992561  0.03928850     0.70160
O239        O  0.51917969  0.93279641  0.04836497    -0.74740
O240        O  0.47031158  0.88972749  0.01842890    -0.55300
C241        C  0.49615757  0.89923457  0.04020238     0.76170
O242        O  0.57910806  0.05351786  0.41533909    -0.59880
O243        O  0.57345173  0.09719779  0.44384808    -0.53000
C244        C  0.58955497  0.08725978  0.42232738     0.72760
Zr245      Zr  0.53230947  0.99190895  0.43239656     2.54710
O246        O  0.58995874  0.99141909  0.43438068    -0.80450
O247        O  0.53057786  0.99127431  0.37156202    -0.93870
Zr248      Zr  0.53324514  0.99444384  0.03168294     2.64680
O249        O  0.59161372  0.99532230  0.02985856    -0.98820
O250        O  0.53275564  0.99538248  0.09250500    -0.80880
O251        O  0.51558409  0.95760787  0.48263808    -0.84240
O252        O  0.55132912  0.02872841  0.48145464    -2.18950
O253        O  0.45224772  0.05380763  0.41502018    -0.67630
O254        O  0.50297520  0.09741576  0.44307147    -0.52190
C255        C  0.47652062  0.08740568  0.42187769     0.71140
O256        O  0.39005345  0.93341420  0.04591145    -0.60540
O257        O  0.39900375  0.88962951  0.02074439    -0.52510
C258        C  0.38162426  0.89988259  0.04041305     0.72940
O259        O  0.45216586  0.05683112  0.04390043    -0.71930
O260        O  0.50331204  0.09926827  0.01612392    -0.50610
C261        C  0.47629585  0.09008749  0.03627356     0.74330
O262        O  0.39170864  0.92956972  0.41519474    -0.67260
O263        O  0.39717616  0.88746074  0.44714822    -0.54460
C264        C  0.38165886  0.89644572  0.42422233     0.72710
Zr265      Zr  0.43810547  0.99208615  0.43144227     2.77540
O266        O  0.37928432  0.99031373  0.43196791    -0.98010
O267        O  0.44050349  0.99187952  0.37069148    -0.78830
Zr268      Zr  0.43905185  0.99467981  0.03077055     2.70070
O269        O  0.38124773  0.99476636  0.03335582    -0.80080
O270        O  0.44494495  0.99603105  0.09135651    -0.99160
Zr271      Zr  0.45022687  0.92282071  0.48290014     2.21500
Zr272      Zr  0.52113401  0.06395762  0.48046693     2.11130
O273        O  0.45565365  0.02875848  0.48049107    -2.47850
O274        O  0.41982851  0.95775948  0.48171532    -0.79870
O275        O  0.50326713  0.02793708  0.43054485    -0.72070
O276        O  0.46814221  0.95881098  0.03278932    -2.33020
O277        O  0.46728930  0.95631214  0.43185331    -2.29230
O278        O  0.50418801  0.03054675  0.03152673    -0.73830
H279        H  0.57772046  0.04453381  0.48133625     0.78170
H280        H  0.46028432  0.94335788  0.05234639     0.79260
H281        H  0.44500171  0.04446530  0.47998323     0.81480
H282        H  0.45917803  0.93995855  0.41277521     0.79090
H283        H  0.50692517  0.97796569  0.09861859     0.42120
H284        H  0.46902030  0.01820210  0.09614045     0.41100
H285        H  0.37269434  0.99148895  0.00985498     0.40770
H286        H  0.38367235  0.01182821  0.44566126     0.38710
H287        H  0.46680721  0.00827945  0.36538845     0.41840
H288        H  0.50633525  0.96993278  0.36558364     0.36620
H289        H  0.58839083  0.97779851  0.45504309     0.42740
H290        H  0.60768945  0.01654492  0.01555792     0.39150
H291        H  0.37619344  0.99683711  0.40889857     0.44070
H292        H  0.54857080  0.98379744  0.36488843     0.42800
H293        H  0.60204033  0.00297826  0.05262918     0.42930
H294        H  0.42658906  0.00241886  0.09944676     0.43290
C295        C  0.45902545  0.28960883  0.08973285    -0.06410
C296        C  0.48305275  0.32444527  0.10360366    -0.17540
C297        C  0.48836321  0.35675295  0.08856345     0.10790
C298        C  0.47056759  0.35440547  0.05793287    -0.06340
C299        C  0.44654078  0.31980428  0.04399254    -0.17570
C300        C  0.43988778  0.28742045  0.05986532     0.10820
S301        S  0.51753525  0.39947477  0.11047917    -0.32540
S302        S  0.40515986  0.24451799  0.04168884    -0.32540
H303        H  0.39264456  0.22593537  0.07223833     0.28830
H304        H  0.51098728  0.42327548  0.09089457     0.28820
H305        H  0.49780435  0.32655741  0.12653343     0.19410
H306        H  0.43188202  0.31798222  0.02108755     0.19420
C307        C  0.47229251  0.11972323  0.05187884    -0.06410
C308        C  0.50234957  0.14797952  0.06912513    -0.17540
C309        C  0.49893959  0.17490791  0.08682434     0.10790
C310        C  0.46471510  0.17364029  0.08724802    -0.06340
C311        C  0.43495300  0.14605209  0.06927015    -0.17570
C312        C  0.43842134  0.11928917  0.05142903     0.10820
S313        S  0.53897481  0.20954349  0.10889115    -0.32540
S314        S  0.39897764  0.08598589  0.02784618    -0.32540
H315        H  0.41936307  0.08339192  0.00125254     0.28830
H316        H  0.53022434  0.23768857  0.10696536     0.28820
H317        H  0.52847469  0.14871341  0.06930778     0.19410
H318        H  0.40884446  0.14542971  0.06911162     0.19420
C319        C  0.45519045  0.22645856  0.26596537    -0.06410
C320        C  0.42499915  0.19718264  0.24962170    -0.17540
C321        C  0.42215350  0.19575121  0.21466935     0.10790
C322        C  0.45028898  0.22403771  0.19559460    -0.06340
C323        C  0.48042585  0.25313056  0.21195560    -0.17570
C324        C  0.48349642  0.25434203  0.24671770     0.10820
S325        S  0.38174962  0.15773697  0.19606490    -0.32540
S326        S  0.52514982  0.29115711  0.26474621    -0.32540
H327        H  0.52714993  0.27020607  0.29117550     0.28830
H328        H  0.38091979  0.17665712  0.16744663     0.28820
H329        H  0.40321289  0.17564140  0.26423461     0.19410
H330        H  0.50238930  0.27456491  0.19738665     0.19420
C331        C  0.46964948  0.35149457  0.40892806    -0.06410
C332        C  0.49841598  0.35611264  0.38815016    -0.17540
C333        C  0.49672998  0.32627096  0.37092978     0.10790
C334        C  0.46538803  0.29090348  0.37423397    -0.06340
C335        C  0.43686074  0.28618891  0.39545865    -0.17570
C336        C  0.43872579  0.31600725  0.41295481     0.10820
S337        S  0.53568055  0.33516942  0.34557456    -0.32540
S338        S  0.40117256  0.30683560  0.44044505    -0.32540
H339        H  0.42234632  0.33453647  0.46382857     0.28830
H340        H  0.53275192  0.30065630  0.35044216     0.28820
H341        H  0.52231637  0.38325245  0.38518270     0.19410
H342        H  0.41294088  0.25906668  0.39836048     0.19420
C343        C  0.46343776  0.17111694  0.37298260    -0.06410
C344        C  0.49825497  0.17430993  0.37455530    -0.17540
C345        C  0.50334840  0.14729184  0.38991263     0.10790
C346        C  0.47299068  0.11648209  0.40453877    -0.06340
C347        C  0.43816861  0.11349323  0.40310845    -0.17570
C348        C  0.43303307  0.14036878  0.38744702     0.10820
S349        S  0.54887046  0.15310572  0.38874601    -0.32540
S350        S  0.38724607  0.13402580  0.38733601    -0.32540
H351        H  0.39062944  0.15390681  0.35811779     0.28830
H352        H  0.53708215  0.11549231  0.38482248     0.28820
H353        H  0.52155472  0.19779796  0.36319996     0.19410
H354        H  0.41478996  0.09011264  0.41449638     0.19420
C355        C  0.61819613  0.50145667  0.40699679    -0.06410
C356        C  0.61323396  0.48249104  0.37688144    -0.17540
C357        C  0.64306804  0.48372330  0.36021786     0.10790
C358        C  0.67924274  0.50606417  0.37302295    -0.06340
C359        C  0.68385099  0.52441792  0.40366628    -0.17570
C360        C  0.65379793  0.52204600  0.42087374     0.10820
S361        S  0.63249925  0.45413232  0.32416628    -0.32540
S362        S  0.66255518  0.54512439  0.46077286    -0.32540
H363        H  0.63530147  0.55494435  0.45773919     0.28830
H364        H  0.66073470  0.44602050  0.32988000     0.28820
H365        H  0.58571757  0.46570669  0.36677439     0.19410
H366        H  0.71116900  0.54125134  0.41411356     0.19420
C367        C  0.80023603  0.50948386  0.37372199    -0.06410
C368        C  0.82870275  0.54133153  0.38866607    -0.17540
C369        C  0.85774525  0.54069772  0.40530683     0.10790
C370        C  0.85878208  0.50758186  0.40661395    -0.06340
C371        C  0.83010186  0.47566622  0.39180107    -0.17570
C372        C  0.80090299  0.47623159  0.37539402     0.10820
S373        S  0.89184895  0.58266760  0.42527053    -0.32540
S374        S  0.76608002  0.43388121  0.35639081    -0.32540
H375        H  0.73707327  0.44135687  0.35783137     0.28830
H376        H  0.89705986  0.56539339  0.45312485     0.28820
H377        H  0.82817181  0.56684988  0.38747508     0.19410
H378        H  0.83066639  0.45014838  0.39270562     0.19420
C379        C  0.68682112  0.51653640  0.08794378    -0.06410
C380        C  0.66234919  0.48206542  0.07407056    -0.17540
C381        C  0.62969687  0.47536184  0.05843027     0.10790
C382        C  0.62144344  0.50420770  0.05581487    -0.06340
C383        C  0.64666451  0.53895768  0.06935405    -0.17570
C384        C  0.67913782  0.54542946  0.08509758     0.10820
S385        S  0.59961988  0.42897607  0.04391192    -0.32540
S386        S  0.70990001  0.59129714  0.10057753    -0.32540
H387        H  0.74255145  0.59018045  0.09650678     0.28830
H388        H  0.56751234  0.42729075  0.05594377     0.28820
H389        H  0.66821108  0.45979008  0.07642918     0.19410
H390        H  0.64146796  0.56167650  0.06722507     0.19420
C391        C  0.75090131  0.52709420  0.19609514    -0.06410
C392        C  0.74887702  0.49652214  0.21219245    -0.17540
C393        C  0.74646018  0.49327028  0.24691624     0.10790
C394        C  0.74722822  0.52178129  0.26636054    -0.06340
C395        C  0.74912934  0.55238525  0.25030633    -0.17570
C396        C  0.75119153  0.55545345  0.21540496     0.10820
S397        S  0.74082085  0.45130642  0.26471969    -0.32540
S398        S  0.75498619  0.59644513  0.19713070    -0.32540
H399        H  0.77507530  0.59704440  0.16888114     0.28830
H400        H  0.71800859  0.44956232  0.29112477     0.28820
H401        H  0.74799531  0.47439460  0.19744995     0.19410
H402        H  0.74968832  0.57431143  0.26510471     0.19420
C403        C  0.80675806  0.51949053  0.08913862    -0.06410
C404        C  0.79751921  0.48568760  0.07441706    -0.17540
C405        C  0.82390877  0.48034347  0.05829625     0.10790
C406        C  0.86091522  0.50956192  0.05667393    -0.06340
C407        C  0.86995563  0.54347752  0.07171123    -0.17570
C408        C  0.84335398  0.54879714  0.08761259     0.10820
S409        S  0.80855853  0.43488302  0.04223710    -0.32540
S410        S  0.85773099  0.59372310  0.10499385    -0.32540
H411        H  0.82393177  0.59249787  0.10047216     0.28830
H412        H  0.81091521  0.44621256  0.00881538     0.28820
H413        H  0.76947325  0.46299630  0.07597091     0.19410
H414        H  0.89787665  0.56641013  0.07059813     0.19420
C415        C  0.68555512  0.17386407  0.08918370    -0.06410
C416        C  0.65037966  0.16318087  0.10176589    -0.17540
C417        C  0.61847194  0.13598019  0.08602278     0.10310
C418        C  0.62156779  0.11956633  0.05637131    -0.06340
C419        C  0.65642976  0.13003873  0.04360752    -0.17570
C420        C  0.68841273  0.15632852  0.05997271     0.10820
S421        S  0.57509773  0.12288644  0.10594996    -0.32540
S422        S  0.73162227  0.16422972  0.04334165    -0.32540
H423        H  0.74933004  0.17036064  0.07453607     0.28830
H424        H  0.55147383  0.10386750  0.07914990     0.28820
H425        H  0.64763811  0.17628390  0.12406325     0.19410
H426        H  0.65874589  0.11668737  0.02126923     0.19420
C427        C  0.80528973  0.29365362  0.08728849    -0.06410
C428        C  0.79493794  0.31023821  0.06240631    -0.17540
C429        C  0.82110194  0.34043598  0.04426772     0.10790
C430        C  0.85898071  0.35687244  0.05282038    -0.06340
C431        C  0.86916377  0.33971858  0.07750632    -0.17570
C432        C  0.84313840  0.30786071  0.09377285     0.10820
S433        S  0.80375128  0.35461279  0.50957351    -0.32540
S434        S  0.86044008  0.28574548  0.12104599    -0.32540
H435        H  0.83211260  0.24967685  0.11398189     0.28830
H436        H  0.82867607  0.35388063  0.48671976     0.28820
H437        H  0.76606840  0.29925023  0.05663180     0.19410
H438        H  0.89786915  0.35060078  0.08387054     0.19420
C439        C  0.68411257  0.17575049  0.37262776    -0.06410
C440        C  0.67272456  0.13905199  0.36461811    -0.17540
C441        C  0.64245481  0.10977136  0.38004132     0.10790
C442        C  0.62247489  0.11687653  0.40473325    -0.06340
C443        C  0.63415301  0.15388822  0.41266674    -0.17570
C444        C  0.66397509  0.18312273  0.39659734     0.10820
S445        S  0.63155530  0.06444802  0.36650384    -0.32540
S446        S  0.67328444  0.22894537  0.40661261    -0.32540
H447        H  0.68421640  0.24298222  0.37419419     0.28830
H448        H  0.63818717  0.05486592  0.39838600     0.28820
H449        H  0.68797254  0.13303554  0.34631435     0.19410
H450        H  0.61942640  0.16043189  0.43106268     0.19420
C451        C  0.75204600  0.23115514  0.26676036    -0.06410
C452        C  0.75556776  0.26205261  0.25001233    -0.17540
C453        C  0.75405755  0.26295695  0.21520433     0.10790
C454        C  0.75014455  0.23269463  0.19626647    -0.06340
C455        C  0.74694226  0.20185651  0.21302682    -0.17570
C456        C  0.74797629  0.20078564  0.24795178     0.10820
S457        S  0.75495502  0.30260241  0.19685311    -0.32540
S458        S  0.74483859  0.16032960  0.26682182    -0.32540
H459        H  0.76654125  0.17848449  0.29500911     0.28830
H460        H  0.73033611  0.28307547  0.17067162     0.28820
H461        H  0.75797741  0.28514998  0.26428125     0.19410
H462        H  0.74418018  0.17862511  0.19875247     0.19420
C463        C  0.85767093  0.35760042  0.40955888    -0.06410
C464        C  0.83799100  0.36189731  0.38341602    -0.17540
C465        C  0.81059600  0.33137402  0.36625996     0.10790
C466        C  0.80310971  0.29561985  0.37501956    -0.06340
C467        C  0.82242235  0.29138305  0.40169542    -0.17570
C468        C  0.84944808  0.32196157  0.41918873     0.10820
S469        S  0.78585198  0.34002476  0.33394310    -0.32540
S470        S  0.87255970  0.31368267  0.45328076    -0.32540
H471        H  0.87968380  0.34470032  0.47229904     0.28830
H472        H  0.75192505  0.30787873  0.33945570     0.28820
H473        H  0.84412498  0.38927861  0.37624404     0.19410
H474        H  0.81661950  0.26408431  0.40873651     0.19420
C475        C  0.34546582  0.47772279  0.40600733    -0.06410
C476        C  0.33159324  0.50003851  0.41756861    -0.17540
C477        C  0.30324759  0.50172834  0.40085910     0.10790
C478        C  0.28559596  0.47826644  0.37319416    -0.06340
C479        C  0.29869117  0.45517136  0.36212208    -0.17570
C480        C  0.32904639  0.45568538  0.37714091     0.10820
S481        S  0.29365348  0.53688691  0.41457903    -0.32540
S482        S  0.34645151  0.42941431  0.35645706    -0.32540
H483        H  0.38257655  0.45948889  0.35499039     0.28830
H484        H  0.28856681  0.54620641  0.38204863     0.28820
H485        H  0.34389221  0.51768974  0.43917313     0.19410
H486        H  0.28578329  0.43715187  0.34083945     0.19420
C487        C  0.16566571  0.47795462  0.37256247    -0.06410
C488        C  0.12926349  0.44987001  0.36759602    -0.17540
C489        C  0.09991864  0.45121165  0.38252560     0.10790
C490        C  0.10695552  0.48083936  0.40445453    -0.06340
C491        C  0.14373179  0.50875764  0.40944094    -0.17570
C492        C  0.17276329  0.50813735  0.39318477     0.10820
S493        S  0.05466365  0.41434629  0.37156463    -0.32540
S494        S  0.21777856  0.54800308  0.39819294    -0.32540
H495        H  0.22947250  0.54729751  0.36546109     0.28830
H496        H  0.04433041  0.43835336  0.35703121     0.28820
H497        H  0.12359036  0.42691162  0.35132696     0.19410
H498        H  0.15013233  0.53216669  0.42532537     0.19420
C499        C  0.22029295  0.47002122  0.19435603    -0.06410
C500        C  0.22587026  0.44441458  0.21217260    -0.17540
C501        C  0.22606171  0.44406661  0.24715001     0.10790
C502        C  0.22110607  0.47033097  0.26509045    -0.06340
C503        C  0.21529383  0.49574728  0.24729898    -0.17570
C504        C  0.21532513  0.49625265  0.21237437     0.10820
S505        S  0.23144260  0.40857035  0.26716055    -0.32540
S506        S  0.21112114  0.53254657  0.19263649    -0.32540
H507        H  0.23595509  0.53823267  0.16675901     0.28830
H508        H  0.20876118  0.40417196  0.29456578     0.28820
H509        H  0.22939474  0.42398474  0.19868461     0.19410
H510        H  0.21196780  0.51630349  0.26078527     0.19420
C511        C  0.28209295  0.47129634  0.08783910    -0.06410
C512        C  0.31155769  0.50626267  0.08037367    -0.17540
C513        C  0.34368876  0.51056810  0.06582019     0.10790
C514        C  0.34617141  0.47906386  0.05752114    -0.06340
C515        C  0.31659657  0.44404965  0.06536499    -0.17570
C516        C  0.28463822  0.43983596  0.08028302     0.10820
S517        S  0.38113909  0.55699219  0.06056441    -0.32540
S518        S  0.24842068  0.39369107  0.08942214    -0.32540
H519        H  0.21902194  0.40053349  0.08706150     0.28830
H520        H  0.40865137  0.54901874  0.07014167     0.28820
H521        H  0.30989092  0.53046760  0.08686714     0.19410
H522        H  0.31807026  0.41965877  0.05927023     0.19420
C523        C  0.16475733  0.47326132  0.08458839    -0.06410
C524        C  0.13481232  0.44181502  0.07064487    -0.17540
C525        C  0.10715339  0.44416081  0.05307773     0.10790
C526        C  0.10910592  0.47865882  0.04985916    -0.06340
C527        C  0.13975609  0.51015464  0.06296030    -0.17570
C528        C  0.16743875  0.50787802  0.08033828     0.10820
S529        S  0.07106557  0.40251395  0.03428109    -0.32540
S530        S  0.20472785  0.55005703  0.09731942    -0.32540
H531        H  0.23183292  0.53986896  0.09612286     0.28830
H532        H  0.06672431  0.41978205  0.00594466     0.28820
H533        H  0.13306974  0.41531107  0.07338198     0.19410
H534        H  0.14190252  0.53676775  0.06008325     0.19420
C535        C  0.11104566  0.63318614  0.05384932    -0.06410
C536        C  0.11755501  0.66817146  0.04476171    -0.17540
C537        C  0.14469346  0.69989614  0.06091251     0.10790
C538        C  0.16640767  0.69665835  0.08626886    -0.06340
C539        C  0.16000372  0.66158618  0.09505458    -0.17570
C540        C  0.13227990  0.62988719  0.07951564     0.10820
S541        S  0.14913381  0.74331441  0.04894706    -0.32540
S542        S  0.12452800  0.58612327  0.09446569    -0.32540
H543        H  0.08632271  0.56679526  0.08907807     0.28830
H544        H  0.15853535  0.75939576  0.08094834     0.28820
H545        H  0.10092462  0.67071295  0.02533519     0.19410
H546        H  0.17632677  0.65885513  0.11467191     0.19420
C547        C  0.28559381  0.81633666  0.08970975    -0.06410
C548        C  0.32023853  0.82073168  0.09730316    -0.17540
C549        C  0.35211554  0.84793325  0.08180387     0.10790
C550        C  0.34934921  0.87120188  0.05802604    -0.06340
C551        C  0.31488336  0.86732792  0.05095647    -0.17570
C552        C  0.28298804  0.84002796  0.06626618     0.10820
S553        S  0.39545649  0.85219448  0.09407297    -0.32540
S554        S  0.24001881  0.83715589  0.05500217    -0.32540
H555        H  0.22336500  0.82532472  0.08639641     0.28830
H556        H  0.41664041  0.89049040  0.08980404     0.28820
H557        H  0.32243429  0.80281953  0.11547676     0.19410
H558        H  0.31279693  0.88568360  0.03324268     0.19420
C559        C  0.16758244  0.69208771  0.37269267    -0.06410
C560        C  0.15470878  0.65636185  0.36014263    -0.17540
C561        C  0.12607321  0.62557764  0.37573585     0.10790
C562        C  0.11018581  0.63032509  0.40493703    -0.06340
C563        C  0.12333663  0.66576373  0.41795528    -0.17570
C564        C  0.15146517  0.69668811  0.40201480     0.10820
S565        S  0.11136393  0.58098846  0.35742554    -0.32540
S566        S  0.16431790  0.74111209  0.41972500    -0.32540
H567        H  0.17058316  0.75931052  0.38893085     0.28830
H568        H  0.07412783  0.56527256  0.36601236     0.28820
H569        H  0.16693638  0.65242569  0.33785106     0.19410
H570        H  0.11115080  0.66940546  0.44042778     0.19420
C571        C  0.21876984  0.75774719  0.26533230    -0.06410
C572        C  0.21509448  0.78509151  0.24861842    -0.17540
C573        C  0.21435409  0.78600681  0.21360698     0.10790
C574        C  0.21792541  0.75934613  0.19496235    -0.06340
C575        C  0.22138580  0.73199273  0.21173738    -0.17570
C576        C  0.22242093  0.73122585  0.24655274     0.10820
S577        S  0.20817669  0.82131787  0.19427395    -0.32540
S578        S  0.23013866  0.69666917  0.26545051    -0.32540
H579        H  0.25218714  0.71899634  0.29193448     0.28830
H580        H  0.19050529  0.80123501  0.16521046     0.28820
H581        H  0.21238555  0.80553945  0.26293432     0.19410
H582        H  0.22456036  0.71175835  0.19751222     0.19420
C583        C  0.28944327  0.81016815  0.37124993    -0.06410
C584        C  0.28557082  0.81902903  0.40438257    -0.17540
C585        C  0.31533941  0.84626813  0.42244804     0.10790
C586        C  0.34975764  0.86658308  0.40685872    -0.06340
C587        C  0.35410723  0.85796873  0.37401552    -0.17570
C588        C  0.32484347  0.82914632  0.35641023     0.10820
S589        S  0.30743253  0.85352850  0.46530483    -0.32540
S590        S  0.33442615  0.81515942  0.31663953    -0.32540
H591        H  0.37125168  0.84349590  0.31388151     0.28830
H592        H  0.33395948  0.89110843  0.46712976     0.28820
H593        H  0.25895113  0.80502361  0.41636364     0.19410
H594        H  0.38090246  0.87324589  0.36257019     0.19420
C595        C  0.49547573  0.68719608  0.37481652    -0.06410
C596        C  0.46105869  0.65811334  0.38415171    -0.17540
C597        C  0.45759628  0.62627210  0.39876326     0.10790
C598        C  0.48947462  0.62375281  0.40532855    -0.06340
C599        C  0.52389543  0.65298199  0.39564502    -0.17570
C600        C  0.52722707  0.68456200  0.38060884     0.10820
S601        S  0.41155778  0.58909775  0.40618094    -0.32540
S602        S  0.57275354  0.72042242  0.36924012    -0.32540
H603        H  0.56624713  0.74996072  0.37279071     0.28830
H604        H  0.41881318  0.56147137  0.39531578     0.28820
H605        H  0.43656701  0.65971357  0.37890961     0.19410
H606        H  0.54857934  0.65159944  0.40042278     0.19420
C607        C  0.49438859  0.86609284  0.40816704    -0.06410
C608        C  0.51359599  0.85059242  0.42314393    -0.17540
C609        C  0.51743990  0.82311295  0.40690449     0.10790
C610        C  0.49987989  0.80916430  0.37555459    -0.06340
C611        C  0.48045881  0.82490661  0.36089373    -0.17570
C612        C  0.47805972  0.85342275  0.37652524     0.10820
S613        S  0.54739027  0.80944589  0.42658704    -0.32540
S614        S  0.45445200  0.87301042  0.35448148    -0.32540
H615        H  0.44037457  0.88101744  0.38302672     0.28830
H616        H  0.56202025  0.80517816  0.39647004     0.28820
H617        H  0.52688892  0.86098495  0.44715411     0.19410
H618        H  0.46658461  0.81471465  0.33710884     0.19420
C619        C  0.49511207  0.68837623  0.08883882    -0.06410
C620        C  0.51979539  0.67672907  0.09835461    -0.17540
C621        C  0.51902940  0.64619735  0.08355153     0.10790
C622        C  0.49424086  0.62742034  0.05675658    -0.06340
C623        C  0.47028099  0.63998922  0.04660520    -0.17570
C624        C  0.46966717  0.66923889  0.06283712     0.10820
S625        S  0.54918884  0.63207844  0.10182535    -0.32540
S626        S  0.43404672  0.67884400  0.05049466    -0.32540
H627        H  0.42742303  0.68676062  0.08304037     0.28830
H628        H  0.51975167  0.59698598  0.10967485     0.28820
H629        H  0.53943372  0.69107923  0.11829187     0.19410
H630        H  0.45080531  0.62620634  0.02645463     0.19420
C631        C  0.49847742  0.80965876  0.09089760    -0.06410
C632        C  0.52965693  0.84484454  0.09182254    -0.17540
C633        C  0.53041908  0.87434561  0.07487783     0.10790
C634        C  0.49865082  0.86903966  0.05731868    -0.06340
C635        C  0.46749538  0.83348236  0.05657239    -0.17570
C636        C  0.46698754  0.80403811  0.07320590     0.10820
S637        S  0.57349161  0.91711187  0.07543816    -0.32540
S638        S  0.42479986  0.76032270  0.07172737    -0.32540
H639        H  0.42836783  0.74867400  0.10371753     0.28830
H640        H  0.57331881  0.92208401  0.04068579     0.28820
H641        H  0.55400447  0.84911246  0.10516283     0.19410
H642        H  0.44274630  0.82852874  0.04357966     0.19420
C643        C  0.50265703  0.75036732  0.26773503    -0.06410
C644        C  0.53349347  0.77694873  0.25038385    -0.17540
C645        C  0.53422343  0.77723021  0.21540526     0.10790
C646        C  0.50317072  0.75077538  0.19731463    -0.06340
C647        C  0.47240007  0.72420922  0.21468762    -0.17570
C648        C  0.47160186  0.72399550  0.24958486     0.10820
S649        S  0.57582676  0.81133055  0.19539896    -0.32540
S650        S  0.42964546  0.69024020  0.26939022    -0.32540
H651        H  0.43202334  0.71257483  0.29662268     0.28830
H652        H  0.57272975  0.78980836  0.16726928     0.28820
H653        H  0.55740157  0.79715675  0.26420948     0.19410
H654        H  0.44839667  0.70408846  0.20089909     0.19420
C655        C  0.49643420  0.71978707  0.60733224     0.02840
C656        C  0.49790281  0.72038156  0.64243769    -0.13310
C657        C  0.50143136  0.75061871  0.66046263     0.00340
C658        C  0.50211698  0.78001752  0.64338735    -0.11830
C659        C  0.49967630  0.77941200  0.60844688     0.02830
C660        C  0.49782014  0.74977066  0.59044941    -0.11260
H661        H  0.49667806  0.69739968  0.65585455     0.08430
H662        H  0.50379400  0.80299191  0.65731492     0.05960
H663        H  0.49745882  0.75015829  0.56339184     0.05800
C664        C  0.49722558  0.71862380  0.85680169     0.02840
C665        C  0.50068924  0.72036474  0.82200925    -0.13310
C666        C  0.50346166  0.75053370  0.80463138     0.00340
C667        C  0.50511040  0.78010295  0.82242494    -0.11830
C668        C  0.50089133  0.77853574  0.85739697     0.02830
C669        C  0.49560997  0.74681215  0.87422643    -0.11260
H670        H  0.50057996  0.69794899  0.80840797     0.08430
H671        H  0.50859077  0.80386890  0.80875024     0.05960
H672        H  0.49063697  0.74404075  0.90086155     0.05800
C673        C  0.25605407  0.78136976  0.85324022     0.02840
C674        C  0.24972818  0.78563413  0.81943245    -0.13310
C675        C  0.21967700  0.75753125  0.80221009     0.00340
C676        C  0.19276186  0.72727450  0.81982130    -0.11830
C677        C  0.19694302  0.72373514  0.85414839     0.02830
C678        C  0.22945625  0.74986755  0.87026223    -0.11260
H679        H  0.26876378  0.81013915  0.80596442     0.08430
H680        H  0.16883660  0.70622353  0.80660456     0.05960
H681        H  0.23377368  0.74561313  0.89617733     0.05800
C682        C  0.25294793  0.78694882  0.60673350     0.02840
C683        C  0.24997421  0.78807007  0.64157819    -0.13310
C684        C  0.21972258  0.75976706  0.65814226     0.00340
C685        C  0.19249257  0.73017668  0.63975230    -0.11830
C686        C  0.19501451  0.72882015  0.60491153     0.02830
C687        C  0.22543362  0.75721272  0.58846719    -0.11260
H688        H  0.27144973  0.81065391  0.65583581     0.08430
H689        H  0.16933373  0.70805558  0.65263738     0.05960
H690        H  0.22799857  0.75588898  0.56163376     0.05800
C691        C  0.19261158  0.46931127  0.60367994     0.02840
C692        C  0.19130919  0.46810783  0.63868030    -0.13310
C693        C  0.22005961  0.46867401  0.65724946     0.00340
C694        C  0.24922350  0.46861355  0.64024471    -0.11830
C695        C  0.25016847  0.46892124  0.60525125     0.02830
C696        C  0.22193949  0.46945974  0.58701208    -0.11260
H697        H  0.16839728  0.46771586  0.65140233     0.08430
H698        H  0.27173566  0.46933641  0.65420489     0.05960
H699        H  0.22324917  0.47089445  0.55997368     0.05800
C700        C  0.19524928  0.47571225  0.85468864     0.02840
C701        C  0.19409478  0.47313684  0.81974948    -0.13310
C702        C  0.22261653  0.47270496  0.80211456     0.00340
C703        C  0.25306149  0.47605911  0.81978480    -0.11830
C704        C  0.25411436  0.47730179  0.85494881     0.02830
C705        C  0.22450536  0.47625442  0.87222471    -0.11260
H706        H  0.17103613  0.47177322  0.80622665     0.08430
H707        H  0.27597352  0.47765255  0.80603037     0.05960
H708        H  0.22413827  0.47599907  0.89927526     0.05800
C709        C  0.77567677  0.26255039  0.85659507     0.02840
C710        C  0.77856690  0.26021000  0.82192229    -0.13310
C711        C  0.75057480  0.23106922  0.80367671     0.00340
C712        C  0.71960036  0.20397745  0.82044932    -0.11830
C713        C  0.71692542  0.20516689  0.85536921     0.02830
C714        C  0.74563425  0.23416590  0.87338527    -0.11260
H715        H  0.80214717  0.28173313  0.80898026     0.08430
H716        H  0.69717927  0.18233773  0.80618765     0.05960
H717        H  0.74407466  0.23533452  0.90033251     0.05800
C718        C  0.77606005  0.26217245  0.60616495     0.02840
C719        C  0.74583908  0.23351257  0.58929692    -0.13310
C720        C  0.71814873  0.20360077  0.60691081     0.00340
C721        C  0.72038833  0.20323249  0.64192202    -0.11830
C722        C  0.74941625  0.23247855  0.65923576     0.02830
C723        C  0.77734071  0.26159024  0.64119222    -0.11260
H724        H  0.74382162  0.23454155  0.56238826     0.08430
H725        H  0.69899575  0.18053221  0.65584508     0.05960
H726        H  0.79982932  0.28415982  0.65454048     0.05800
C727        C  0.71916678  0.52089609  0.60648294     0.02840
C728        C  0.74742557  0.51935788  0.58944323    -0.13310
C729        C  0.77778655  0.52251850  0.60701951     0.00340
C730        C  0.77933265  0.52621813  0.64187108    -0.11830
C731        C  0.75092480  0.52725904  0.65919641     0.02830
C732        C  0.72099952  0.52491442  0.64136925    -0.11260
H733        H  0.74582079  0.51576397  0.56253740     0.08430
H734        H  0.80222363  0.52742947  0.65557327     0.05960
H735        H  0.69860032  0.52495526  0.65468418     0.05800
C736        C  0.71251603  0.51115539  0.85511120     0.02840
C737        C  0.71655780  0.51836660  0.82060350    -0.13310
C738        C  0.74632801  0.52013610  0.80325723     0.00340
C739        C  0.77390318  0.51772463  0.82093005    -0.11830
C740        C  0.77117776  0.51229764  0.85550756     0.02830
C741        C  0.74045401  0.50880408  0.87250520    -0.11260
H742        H  0.69582247  0.52118755  0.80692250     0.08430
H743        H  0.79716110  0.51942355  0.80768006     0.05960
H744        H  0.73798837  0.50339280  0.89910589     0.05800
C745        C  0.45993620  0.19994389  0.85532212     0.02840
C746        C  0.46181819  0.22972731  0.87296043    -0.13310
C747        C  0.46149588  0.25862079  0.85570370     0.00340
C748        C  0.45842670  0.25709214  0.82071838    -0.11830
C749        C  0.45646724  0.22727191  0.80292342     0.02830
C750        C  0.45710780  0.19872594  0.82040109    -0.11260
H751        H  0.46461434  0.23093594  0.89993727     0.08430
H752        H  0.45807843  0.27932855  0.80733871     0.05960
H753        H  0.45627215  0.17595651  0.80679648     0.05800
C754        C  0.45910677  0.20060694  0.60605967     0.02840
C755        C  0.45436013  0.19755352  0.64079516    -0.13310
C756        C  0.45028325  0.22402529  0.65870288     0.00340
C757        C  0.45043865  0.25318672  0.64161811    -0.11830
C758        C  0.45534866  0.25662736  0.60687341     0.02830
C759        C  0.45982398  0.23019424  0.58924798    -0.11260
H760        H  0.45499602  0.17533364  0.65392925     0.08430
H761        H  0.44762183  0.27376621  0.65561919     0.05960
H762        H  0.46502435  0.23317833  0.56262018     0.05800
O763        O  0.51648815  0.58595274  0.54571104    -0.75580
O764        O  0.46526491  0.57724355  0.51835450    -0.54490
C765        C  0.49194631  0.59482937  0.53919372     0.78150
O766        O  0.57566728  0.52162839  0.91554948    -0.60180
O767        O  0.56990053  0.47280320  0.94567974    -0.53210
C768        C  0.58573344  0.49833164  0.92380023     0.70160
O769        O  0.51205244  0.58269052  0.91514024    -0.74740
O770        O  0.46357579  0.57632573  0.94577084    -0.55300
C771        C  0.48812069  0.59207785  0.92310353     0.76170
O772        O  0.57760637  0.52322394  0.54684373    -0.59880
O773        O  0.57160904  0.47438139  0.51691702    -0.53000
C774        C  0.58789235  0.50000219  0.53887836     0.72760
Zr775      Zr  0.52985928  0.53739356  0.53128611     2.54710
O776        O  0.58801429  0.59518469  0.53346674    -0.80450
O777        O  0.52626890  0.53196139  0.59188068    -0.93870
Zr778      Zr  0.52841440  0.53643482  0.93169006     2.64680
O779        O  0.58545783  0.59542023  0.93246667    -0.98820
O780        O  0.52656129  0.53380883  0.87089222    -0.80880
O781        O  0.51219199  0.55535916  0.98156106    -0.84240
O782        O  0.54760068  0.52018339  0.98143918    -2.18950
O783        O  0.45032306  0.39637744  0.54867319    -0.67630
O784        O  0.49982315  0.40287566  0.51927829    -0.52190
C785        C  0.47407192  0.38685592  0.54096427     0.71140
O786        O  0.38570538  0.45432356  0.91810932    -0.60540
O787        O  0.39480716  0.50599325  0.94498979    -0.52510
C788        C  0.37732066  0.47931893  0.92414969     0.72940
O789        O  0.44747414  0.39239700  0.91869057    -0.71930
O790        O  0.49988618  0.40237231  0.94537037    -0.50610
C791        C  0.47251037  0.38420460  0.92542227     0.74330
O792        O  0.38798694  0.45769794  0.54800075    -0.67260
O793        O  0.39445464  0.50668404  0.51802666    -0.54460
C794        C  0.37840184  0.48147503  0.54014918     0.72710
Zr795      Zr  0.43547829  0.44319645  0.53228857     2.77540
O796        O  0.37722108  0.38536507  0.53250521    -0.98010
O797        O  0.43906726  0.44706066  0.59300852    -0.78830
Zr798      Zr  0.43435845  0.44128863  0.93295075     2.70070
O799        O  0.37646403  0.38323640  0.93067803    -0.80080
O800        O  0.43918086  0.44552432  0.87235203    -0.99160
Zr801      Zr  0.44682435  0.52446576  0.98204719     2.21500
Zr802      Zr  0.51764689  0.45470059  0.98203129     2.11130
O803        O  0.45214196  0.42406627  0.98280283    -2.47850
O804        O  0.41621528  0.45905919  0.98245863    -0.79870
O805        O  0.50070460  0.47233789  0.53251319    -0.72070
O806        O  0.46333101  0.50636996  0.93153620    -2.33020
O807        O  0.46484267  0.50821999  0.53270486    -2.29230
O808        O  0.49950175  0.47113588  0.93148727    -0.73830
H809        H  0.57399174  0.53100435  0.98134958     0.78170
H810        H  0.45485201  0.51381900  0.91222624     0.79260
H811        H  0.44161121  0.39769352  0.98315054     0.81480
H812        H  0.45710649  0.51651175  0.55193195     0.79090
H813        H  0.50074062  0.52587723  0.86495237     0.42120
H814        H  0.46351319  0.44827332  0.86744935     0.41100
H815        H  0.37327808  0.37326489  0.95358170     0.40770
H816        H  0.38175296  0.36812847  0.51920603     0.38710
H817        H  0.46468947  0.45366600  0.59835013     0.41840
H818        H  0.50412075  0.53321697  0.59799710     0.36620
H819        H  0.59081506  0.60551782  0.51075147     0.42740
H820        H  0.60216548  0.59167362  0.94733461     0.39150
H821        H  0.37461767  0.37640353  0.55575235     0.44070
H822        H  0.54721446  0.55536245  0.60017248     0.42800
H823        H  0.59580379  0.59768138  0.90983498     0.42930
H824        H  0.42124386  0.42047839  0.86429380     0.43290
O825        O  0.04713206  0.59056733  0.91552723    -0.75580
O826        O  0.08972116  0.58200282  0.94365452    -0.54490
C827        C  0.08040898  0.59894219  0.92257255     0.78150
O828        O  0.92409874  0.52943413  0.54748990    -0.60180
O829        O  0.88106523  0.48089032  0.51725806    -0.53210
C830        C  0.89049887  0.50615172  0.53951470     0.70160
O831        O  0.04818674  0.59277431  0.54373243    -0.74740
O832        O  0.09028065  0.58268223  0.51684254    -0.55300
C833        C  0.08129282  0.60078959  0.53693957     0.76170
O834        O  0.92231961  0.52948766  0.91576728    -0.59880
O835        O  0.87978627  0.47890572  0.94416980    -0.53000
C836        C  0.88897396  0.50522973  0.92323150     0.72760
Zr837      Zr  0.98459365  0.54346326  0.93097314     2.54710
O838        O  0.98573756  0.60198513  0.93163317    -0.80450
O839        O  0.98326542  0.54064709  0.87016911    -0.93870
Zr840      Zr  0.98580771  0.54408868  0.53038763     2.64680
O841        O  0.98579058  0.60209397  0.53014122    -0.98820
O842        O  0.98793038  0.54314837  0.59117587    -0.80880
O843        O  0.02077403  0.56162385  0.98048796    -0.84240
O844        O  0.94980926  0.52716824  0.98088494    -2.18950
O845        O  0.92059261  0.39928951  0.91749947    -0.67630
O846        O  0.87868995  0.40879873  0.94537503    -0.52190
C847        C  0.88756331  0.39074394  0.92516989     0.71140
O848        O  0.04598170  0.45911486  0.54192415    -0.60540
O849        O  0.08899670  0.51045312  0.51486406    -0.52510
C850        C  0.07941232  0.48283179  0.53434970     0.72940
O851        O  0.92216807  0.40034238  0.54394709    -0.71930
O852        O  0.87955858  0.40931093  0.51717910    -0.50610
C853        C  0.88863358  0.39103262  0.53688253     0.74330
O854        O  0.04387026  0.46044428  0.91571262    -0.67260
O855        O  0.08758018  0.51077296  0.94333527    -0.54460
C856        C  0.07754243  0.48411650  0.92229990     0.72710
Zr857      Zr  0.98285373  0.44804707  0.93104680     2.77540
O858        O  0.98329216  0.39027400  0.92959335    -0.98010
O859        O  0.98148251  0.45150149  0.87040010    -0.78830
Zr860      Zr  0.98442918  0.44905278  0.53054235     2.70070
O861        O  0.98181081  0.39011763  0.53632557    -0.80080
O862        O  0.98678258  0.45719151  0.59090991    -0.99160
Zr863      Zr  0.05484551  0.53027758  0.98025678     2.21500
Zr864      Zr  0.91429784  0.46169488  0.98107998     2.11130
O865        O  0.94863235  0.43068914  0.98101379    -2.47850
O866        O  0.01900305  0.46495846  0.98050822    -0.79870
O867        O  0.94792515  0.47823645  0.93024301    -0.72070
O868        O  0.02103284  0.51407554  0.53111838    -2.33020
O869        O  0.01937622  0.51308033  0.93000218    -2.29230
O870        O  0.94917305  0.47892527  0.53161249    -0.73830
H871        H  0.93421174  0.53795746  0.98103037     0.78170
H872        H  0.03737183  0.52194114  0.55021559     0.79260
H873        H  0.93281183  0.40432168  0.98108347     0.81480
H874        H  0.03505506  0.52055703  0.91061580     0.79090
H875        H  0.00998136  0.54132779  0.59654385     0.42120
H876        H  0.96490408  0.45931181  0.59615648     0.41100
H877        H  0.98251284  0.38238267  0.51307761     0.40770
H878        H  0.96434315  0.37425150  0.94587612     0.38710
H879        H  0.96096309  0.45603676  0.86557675     0.41840
H880        H  0.00181662  0.53369433  0.86415484     0.36620
H881        H  0.99500550  0.61221049  0.95420621     0.42740
H882        H  0.96418482  0.59728253  0.51637884     0.39150
H883        H  0.97273097  0.37931732  0.90750832     0.44070
H884        H  0.99423711  0.56659518  0.86303087     0.42800
H885        H  0.97901437  0.60480690  0.55321091     0.42930
H886        H  0.98093780  0.43292881  0.59993329     0.43290
O887        O  0.51693951  0.92935158  0.91709685    -0.75580
O888        O  0.46768967  0.88739232  0.94737902    -0.54490
C889        C  0.49300083  0.89625223  0.92544256     0.78150
O890        O  0.57973604  0.05678794  0.54786001    -0.60180
O891        O  0.57362321  0.09909751  0.51683215    -0.53210
C892        C  0.58944923  0.08992561  0.53928850     0.70160
O893        O  0.51917968  0.93279641  0.54836498    -0.74740
O894        O  0.47031157  0.88972749  0.51842890    -0.55300
C895        C  0.49615756  0.89923457  0.54020239     0.76170
O896        O  0.57910807  0.05351786  0.91533909    -0.59880
O897        O  0.57345173  0.09719779  0.94384807    -0.53000
C898        C  0.58955498  0.08725978  0.92232738     0.72760
Zr899      Zr  0.53230948  0.99190895  0.93239657     2.54710
O900        O  0.58995876  0.99141909  0.93438070    -0.80450
O901        O  0.53057789  0.99127431  0.87156202    -0.93870
Zr902      Zr  0.53324514  0.99444384  0.53168294     2.64680
O903        O  0.59161371  0.99532230  0.52985853    -0.98820
O904        O  0.53275566  0.99538249  0.59250500    -0.80880
O905        O  0.51558410  0.95760787  0.98263808    -0.84240
O906        O  0.55132913  0.02872841  0.98145464    -2.18950
O907        O  0.45224772  0.05380764  0.91502018    -0.67630
O908        O  0.50297522  0.09741576  0.94307147    -0.52190
C909        C  0.47652063  0.08740568  0.92187768     0.71140
O910        O  0.39005345  0.93341421  0.54591147    -0.60540
O911        O  0.39900375  0.88962951  0.52074440    -0.52510
C912        C  0.38162426  0.89988260  0.54041306     0.72940
O913        O  0.45216586  0.05683112  0.54390044    -0.71930
O914        O  0.50331204  0.09926827  0.51612392    -0.50610
C915        C  0.47629586  0.09008749  0.53627357     0.74330
O916        O  0.39170865  0.92956972  0.91519473    -0.67260
O917        O  0.39717617  0.88746074  0.94714821    -0.54460
C918        C  0.38165887  0.89644572  0.92422232     0.72710
Zr919      Zr  0.43810549  0.99208615  0.93144226     2.77540
O920        O  0.37928434  0.99031373  0.93196788    -0.98010
O921        O  0.44050353  0.99187953  0.87069147    -0.78830
Zr922      Zr  0.43905185  0.99467981  0.53077056     2.70070
O923        O  0.38124773  0.99476637  0.53335583    -0.80080
O924        O  0.44494496  0.99603106  0.59135652    -0.99160
Zr925      Zr  0.45022688  0.92282071  0.98290013     2.21500
Zr926      Zr  0.52113401  0.06395762  0.98046693     2.11130
O927        O  0.45565366  0.02875847  0.98049106    -2.47850
O928        O  0.41982852  0.95775948  0.98171531    -0.79870
O929        O  0.50326714  0.02793708  0.93054485    -0.72070
O930        O  0.46814221  0.95881098  0.53278932    -2.33020
O931        O  0.46728931  0.95631214  0.93185330    -2.29230
O932        O  0.50418801  0.03054675  0.53152674    -0.73830
H933        H  0.57772047  0.04453381  0.98133625     0.78170
H934        H  0.46028432  0.94335788  0.55234639     0.79260
H935        H  0.44500172  0.04446529  0.97998322     0.81480
H936        H  0.45917805  0.93995855  0.91277521     0.79090
H937        H  0.50692519  0.97796574  0.59861859     0.42120
H938        H  0.46902030  0.01820211  0.59614046     0.41100
H939        H  0.37269429  0.99148886  0.50985501     0.40770
H940        H  0.38367236  0.01182821  0.94566122     0.38710
H941        H  0.46680725  0.00827948  0.86538845     0.41840
H942        H  0.50633527  0.96993279  0.86558364     0.36620
H943        H  0.58839085  0.97779853  0.95504311     0.42740
H944        H  0.60768944  0.01654492  0.51555790     0.39150
H945        H  0.37619347  0.99683711  0.90889854     0.44070
H946        H  0.54857082  0.98379743  0.86488844     0.42800
H947        H  0.60204034  0.00297825  0.55262915     0.42930
H948        H  0.42658906  0.00241886  0.59944677     0.43290
C949        C  0.45902546  0.28960884  0.58973285    -0.06410
C950        C  0.48305276  0.32444529  0.60360366    -0.17540
C951        C  0.48836321  0.35675296  0.58856345     0.10790
C952        C  0.47056760  0.35440548  0.55793287    -0.06340
C953        C  0.44654079  0.31980429  0.54399254    -0.17570
C954        C  0.43988779  0.28742046  0.55986532     0.10820
S955        S  0.51753526  0.39947479  0.61047917    -0.32540
S956        S  0.40515987  0.24451800  0.54168884    -0.32540
H957        H  0.39264457  0.22593538  0.57223834     0.28830
H958        H  0.51098729  0.42327550  0.59089456     0.28820
H959        H  0.49780436  0.32655743  0.62653343     0.19410
H960        H  0.43188203  0.31798223  0.52108754     0.19420
C961        C  0.47229251  0.11972323  0.55187885    -0.06410
C962        C  0.50234957  0.14797952  0.56912514    -0.17540
C963        C  0.49893959  0.17490791  0.58682435     0.10790
C964        C  0.46471511  0.17364030  0.58724803    -0.06340
C965        C  0.43495300  0.14605210  0.56927016    -0.17570
C966        C  0.43842135  0.11928918  0.55142904     0.10820
S967        S  0.53897482  0.20954350  0.60889115    -0.32540
S968        S  0.39897764  0.08598590  0.52784619    -0.32540
H969        H  0.41936307  0.08339193  0.50125255     0.28830
H970        H  0.53022435  0.23768858  0.60696536     0.28820
H971        H  0.52847470  0.14871341  0.56930778     0.19410
H972        H  0.40884447  0.14542972  0.56911163     0.19420
C973        C  0.45519046  0.22645857  0.76596538    -0.06410
C974        C  0.42499917  0.19718266  0.74962170    -0.17540
C975        C  0.42215352  0.19575123  0.71466935     0.10790
C976        C  0.45028899  0.22403773  0.69559460    -0.06340
C977        C  0.48042586  0.25313058  0.71195561    -0.17570
C978        C  0.48349643  0.25434205  0.74671771     0.10820
S979        S  0.38174964  0.15773698  0.69606491    -0.32540
S980        S  0.52514982  0.29115713  0.76474622    -0.32540
H981        H  0.52714995  0.27020610  0.79117551     0.28830
H982        H  0.38091980  0.17665713  0.66744664     0.28820
H983        H  0.40321291  0.17564141  0.76423462     0.19410
H984        H  0.50238931  0.27456493  0.69738666     0.19420
C985        C  0.46964948  0.35149456  0.90892808    -0.06410
C986        C  0.49841599  0.35611264  0.88815018    -0.17540
C987        C  0.49672999  0.32627096  0.87092980     0.10790
C988        C  0.46538803  0.29090348  0.87423399    -0.06340
C989        C  0.43686074  0.28618891  0.89545865    -0.17570
C990        C  0.43872579  0.31600725  0.91295481     0.10820
S991        S  0.53568057  0.33516941  0.84557460    -0.32540
S992        S  0.40117254  0.30683560  0.94044504    -0.32540
H993        H  0.42234631  0.33453647  0.96382857     0.28830
H994        H  0.53275192  0.30065629  0.85044219     0.28820
H995        H  0.52231638  0.38325244  0.88518273     0.19410
H996        H  0.41294087  0.25906668  0.89836047     0.19420
C997        C  0.46343778  0.17111695  0.87298260    -0.06410
C998        C  0.49825498  0.17430990  0.87455526    -0.17540
C999        C  0.50334840  0.14729181  0.88991259     0.10790
C1000       C  0.47299069  0.11648209  0.90453877    -0.06340
C1001       C  0.43816863  0.11349326  0.90310849    -0.17570
C1002       C  0.43303310  0.14036881  0.88744706     0.10820
S1003       S  0.54887045  0.15310565  0.88874592    -0.32540
S1004       S  0.38724611  0.13402587  0.88733610    -0.32540
H1005       H  0.39062945  0.15390682  0.85811785     0.28830
H1006       H  0.53708210  0.11549223  0.88482243     0.28820
H1007       H  0.52155471  0.19779791  0.86319988     0.19410
H1008       H  0.41479000  0.09011269  0.91449645     0.19420
C1009       C  0.61819613  0.50145667  0.90699681    -0.06410
C1010       C  0.61323396  0.48249102  0.87688146    -0.17540
C1011       C  0.64306804  0.48372328  0.86021788     0.10790
C1012       C  0.67924274  0.50606416  0.87302296    -0.06340
C1013       C  0.68385100  0.52441792  0.90366628    -0.17570
C1014       C  0.65379793  0.52204601  0.92087374     0.10820
S1015       S  0.63249924  0.45413228  0.82416631    -0.32540
S1016       S  0.66255520  0.54512442  0.96077285    -0.32540
H1017       H  0.63530148  0.55494436  0.95773918     0.28830
H1018       H  0.66073470  0.44602048  0.82988003     0.28820
H1019       H  0.58571757  0.46570665  0.86677442     0.19410
H1020       H  0.71116900  0.54125135  0.91411355     0.19420
C1021       C  0.80023603  0.50948385  0.87372198    -0.06410
C1022       C  0.82870276  0.54133153  0.88866604    -0.17540
C1023       C  0.85774526  0.54069772  0.90530680     0.10790
C1024       C  0.85878209  0.50758186  0.90661394    -0.06340
C1025       C  0.83010186  0.47566621  0.89180108    -0.17570
C1026       C  0.80090298  0.47623158  0.87539402     0.10820
S1027       S  0.89184898  0.58266761  0.92527048    -0.32540
S1028       S  0.76608000  0.43388119  0.85639084    -0.32540
H1029       H  0.73707325  0.44135687  0.85783139     0.28830
H1030       H  0.89705988  0.56539341  0.95312481     0.28820
H1031       H  0.82817183  0.56684988  0.88747504     0.19410
H1032       H  0.83066637  0.45014837  0.89270564     0.19420
C1033       C  0.68682112  0.51653640  0.58794377    -0.06410
C1034       C  0.66234918  0.48206542  0.57407055    -0.17540
C1035       C  0.62969687  0.47536184  0.55843026     0.10790
C1036       C  0.62144344  0.50420770  0.55581486    -0.06340
C1037       C  0.64666451  0.53895768  0.56935404    -0.17570
C1038       C  0.67913783  0.54542946  0.58509757     0.10820
S1039       S  0.59961988  0.42897607  0.54391191    -0.32540
S1040       S  0.70990001  0.59129714  0.60057752    -0.32540
H1041       H  0.74255145  0.59018044  0.59650677     0.28830
H1042       H  0.56751234  0.42729075  0.55594376     0.28820
H1043       H  0.66821108  0.45979008  0.57642918     0.19410
H1044       H  0.64146797  0.56167650  0.56722506     0.19420
C1045       C  0.75090129  0.52709418  0.69609514    -0.06410
C1046       C  0.74887700  0.49652213  0.71219245    -0.17540
C1047       C  0.74646016  0.49327026  0.74691624     0.10790
C1048       C  0.74722820  0.52178127  0.76636053    -0.06340
C1049       C  0.74912932  0.55238523  0.75030633    -0.17570
C1050       C  0.75119150  0.55545343  0.71540496     0.10820
S1051       S  0.74082084  0.45130641  0.76471968    -0.32540
S1052       S  0.75498616  0.59644512  0.69713070    -0.32540
H1053       H  0.77507528  0.59704439  0.66888114     0.28830
H1054       H  0.71800858  0.44956230  0.79112477     0.28820
H1055       H  0.74799529  0.47439459  0.69744994     0.19410
H1056       H  0.74968830  0.57431141  0.76510471     0.19420
C1057       C  0.80675806  0.51949053  0.58913863    -0.06410
C1058       C  0.79751921  0.48568760  0.57441707    -0.17540
C1059       C  0.82390878  0.48034346  0.55829627     0.10790
C1060       C  0.86091523  0.50956192  0.55667394    -0.06340
C1061       C  0.86995563  0.54347753  0.57171123    -0.17570
C1062       C  0.84335397  0.54879714  0.58761260     0.10820
S1063       S  0.80855854  0.43488302  0.54223714    -0.32540
S1064       S  0.85773098  0.59372311  0.60499384    -0.32540
H1065       H  0.82393176  0.59249787  0.60047216     0.28830
H1066       H  0.81091521  0.44621254  0.50881541     0.28820
H1067       H  0.76947325  0.46299629  0.57597093     0.19410
H1068       H  0.89787665  0.56641014  0.57059813     0.19420
C1069       C  0.68555512  0.17386407  0.58918369    -0.06410
C1070       C  0.65037966  0.16318087  0.60176589    -0.17540
C1071       C  0.61847194  0.13598019  0.58602278     0.10310
C1072       C  0.62156778  0.11956633  0.55637130    -0.06340
C1073       C  0.65642976  0.13003873  0.54360751    -0.17570
C1074       C  0.68841273  0.15632852  0.55997270     0.10820
S1075       S  0.57509773  0.12288643  0.60594996    -0.32540
S1076       S  0.73162227  0.16422973  0.54334163    -0.32540
H1077       H  0.74933004  0.17036064  0.57453605     0.28830
H1078       H  0.55147383  0.10386750  0.57914990     0.28820
H1079       H  0.64763812  0.17628390  0.62406325     0.19410
H1080       H  0.65874588  0.11668737  0.52126922     0.19420
C1081       C  0.80528974  0.29365362  0.58728848    -0.06410
C1082       C  0.79493794  0.31023821  0.56240631    -0.17540
C1083       C  0.82110195  0.34043598  0.54426772     0.10790
C1084       C  0.85898072  0.35687244  0.55282038    -0.06340
C1085       C  0.86916378  0.33971858  0.57750631    -0.17570
C1086       C  0.84313841  0.30786071  0.59377284     0.10820
S1087       S  0.80375128  0.35461279  0.00957351    -0.32540
S1088       S  0.86044009  0.28574547  0.62104598    -0.32540
H1089       H  0.83211261  0.24967684  0.61398187     0.28830
H1090       H  0.82867607  0.35388062  0.98671977     0.28820
H1091       H  0.76606841  0.29925023  0.55663180     0.19410
H1092       H  0.89786916  0.35060077  0.58387053     0.19420
C1093       C  0.68411257  0.17575049  0.87262775    -0.06410
C1094       C  0.67272456  0.13905199  0.86461809    -0.17540
C1095       C  0.64245480  0.10977136  0.88004130     0.10790
C1096       C  0.62247490  0.11687653  0.90473324    -0.06340
C1097       C  0.63415302  0.15388822  0.91266674    -0.17570
C1098       C  0.66397510  0.18312272  0.89659734     0.10820
S1099       S  0.63155528  0.06444802  0.86650382    -0.32540
S1100       S  0.67328445  0.22894537  0.90661262    -0.32540
H1101       H  0.68421641  0.24298222  0.87419420     0.28830
H1102       H  0.63818717  0.05486591  0.89838597     0.28820
H1103       H  0.68797253  0.13303553  0.84631434     0.19410
H1104       H  0.61942641  0.16043189  0.93106268     0.19420
C1105       C  0.75204600  0.23115513  0.76676035    -0.06410
C1106       C  0.75556777  0.26205260  0.75001232    -0.17540
C1107       C  0.75405756  0.26295694  0.71520432     0.10790
C1108       C  0.75014455  0.23269463  0.69626646    -0.06340
C1109       C  0.74694226  0.20185651  0.71302681    -0.17570
C1110       C  0.74797629  0.20078563  0.74795178     0.10820
S1111       S  0.75495504  0.30260242  0.69685310    -0.32540
S1112       S  0.74483858  0.16032959  0.76682181    -0.32540
H1113       H  0.76654124  0.17848448  0.79500910     0.28830
H1114       H  0.73033612  0.28307547  0.67067162     0.28820
H1115       H  0.75797743  0.28514998  0.76428125     0.19410
H1116       H  0.74418017  0.17862510  0.69875246     0.19420
C1117       C  0.85767093  0.35760041  0.90955887    -0.06410
C1118       C  0.83799101  0.36189730  0.88341601    -0.17540
C1119       C  0.81059601  0.33137401  0.86625996     0.10790
C1120       C  0.80310972  0.29561985  0.87501955    -0.06340
C1121       C  0.82242236  0.29138305  0.90169541    -0.17570
C1122       C  0.84944809  0.32196156  0.91918872     0.10820
S1123       S  0.78585199  0.34002475  0.83394309    -0.32540
S1124       S  0.87255970  0.31368266  0.95328076    -0.32540
H1125       H  0.87968380  0.34470031  0.97229904     0.28830
H1126       H  0.75192505  0.30787873  0.83945569     0.28820
H1127       H  0.84412499  0.38927861  0.87624404     0.19410
H1128       H  0.81661950  0.26408430  0.90873650     0.19420
C1129       C  0.34546584  0.47772280  0.90600733    -0.06410
C1130       C  0.33159325  0.50003852  0.91756861    -0.17540
C1131       C  0.30324760  0.50172836  0.90085910     0.10790
C1132       C  0.28559597  0.47826646  0.87319415    -0.06340
C1133       C  0.29869118  0.45517137  0.86212208    -0.17570
C1134       C  0.32904640  0.45568539  0.87714091     0.10820
S1135       S  0.29365350  0.53688692  0.91457903    -0.32540
S1136       S  0.34645152  0.42941432  0.85645706    -0.32540
H1137       H  0.38257657  0.45948889  0.85499039     0.28830
H1138       H  0.28856682  0.54620642  0.88204863     0.28820
H1139       H  0.34389222  0.51768975  0.93917313     0.19410
H1140       H  0.28578331  0.43715188  0.84083945     0.19420
C1141       C  0.16566572  0.47795463  0.87256247    -0.06410
C1142       C  0.12926350  0.44987001  0.86759602    -0.17540
C1143       C  0.09991865  0.45121164  0.88252560     0.10790
C1144       C  0.10695553  0.48083936  0.90445453    -0.06340
C1145       C  0.14373179  0.50875764  0.90944095    -0.17570
C1146       C  0.17276329  0.50813735  0.89318478     0.10820
S1147       S  0.05466366  0.41434629  0.87156463    -0.32540
S1148       S  0.21777856  0.54800308  0.89819295    -0.32540
H1149       H  0.22947251  0.54729752  0.86546110     0.28830
H1150       H  0.04433041  0.43835335  0.85703121     0.28820
H1151       H  0.12359037  0.42691163  0.85132696     0.19410
H1152       H  0.15013233  0.53216669  0.92532538     0.19420
C1153       C  0.22029295  0.47002122  0.69435603    -0.06410
C1154       C  0.22587026  0.44441459  0.71217260    -0.17540
C1155       C  0.22606172  0.44406661  0.74715001     0.10790
C1156       C  0.22110607  0.47033098  0.76509044    -0.06340
C1157       C  0.21529384  0.49574728  0.74729898    -0.17570
C1158       C  0.21532513  0.49625265  0.71237437     0.10820
S1159       S  0.23144261  0.40857035  0.76716055    -0.32540
S1160       S  0.21112114  0.53254658  0.69263649    -0.32540
H1161       H  0.23595509  0.53823267  0.66675901     0.28830
H1162       H  0.20876119  0.40417197  0.79456578     0.28820
H1163       H  0.22939474  0.42398474  0.69868461     0.19410
H1164       H  0.21196781  0.51630350  0.76078527     0.19420
C1165       C  0.28209295  0.47129634  0.58783910    -0.06410
C1166       C  0.31155767  0.50626266  0.58037364    -0.17540
C1167       C  0.34368874  0.51056810  0.56582016     0.10790
C1168       C  0.34617141  0.47906386  0.55752114    -0.06340
C1169       C  0.31659659  0.44404965  0.56536502    -0.17570
C1170       C  0.28463824  0.43983596  0.58028305     0.10820
S1171       S  0.38113906  0.55699219  0.56056434    -0.32540
S1172       S  0.24842072  0.39369107  0.58942221    -0.32540
H1173       H  0.21902196  0.40053348  0.58706156     0.28830
H1174       H  0.40865135  0.54901877  0.57014163     0.28820
H1175       H  0.30989089  0.53046759  0.58686709     0.19410
H1176       H  0.31807029  0.41965877  0.55927028     0.19420
C1177       C  0.16475733  0.47326131  0.58458838    -0.06410
C1178       C  0.13481232  0.44181502  0.57064487    -0.17540
C1179       C  0.10715339  0.44416081  0.55307773     0.10790
C1180       C  0.10910593  0.47865883  0.54985915    -0.06340
C1181       C  0.13975610  0.51015464  0.56296029    -0.17570
C1182       C  0.16743876  0.50787802  0.58033827     0.10820
S1183       S  0.07106556  0.40251395  0.53428110    -0.32540
S1184       S  0.20472786  0.55005703  0.59731940    -0.32540
H1185       H  0.23183293  0.53986896  0.59612285     0.28830
H1186       H  0.06672430  0.41978205  0.50594467     0.28820
H1187       H  0.13306973  0.41531106  0.57338199     0.19410
H1188       H  0.14190253  0.53676776  0.56008322     0.19420
C1189       C  0.11104567  0.63318614  0.55384933    -0.06410
C1190       C  0.11755500  0.66817147  0.54476173    -0.17540
C1191       C  0.14469345  0.69989615  0.56091253     0.10790
C1192       C  0.16640768  0.69665836  0.58626887    -0.06340
C1193       C  0.16000374  0.66158618  0.59505457    -0.17570
C1194       C  0.13227991  0.62988720  0.57951563     0.10820
S1195       S  0.14913378  0.74331442  0.54894710    -0.32540
S1196       S  0.12452803  0.58612328  0.59446567    -0.32540
H1197       H  0.08632274  0.56679526  0.58907806     0.28830
H1198       H  0.15853534  0.75939576  0.58094838     0.28820
H1199       H  0.10092460  0.67071296  0.52533522     0.19410
H1200       H  0.17632679  0.65885514  0.61467190     0.19420
C1201       C  0.28559381  0.81633667  0.58970976    -0.06410
C1202       C  0.32023854  0.82073169  0.59730318    -0.17540
C1203       C  0.35211554  0.84793326  0.58180390     0.10790
C1204       C  0.34934921  0.87120189  0.55802606    -0.06340
C1205       C  0.31488336  0.86732791  0.55095647    -0.17570
C1206       C  0.28298803  0.84002796  0.56626618     0.10820
S1207       S  0.39545650  0.85219451  0.59407301    -0.32540
S1208       S  0.24001881  0.83715588  0.55500216    -0.32540
H1209       H  0.22336500  0.82532471  0.58639641     0.28830
H1210       H  0.41664041  0.89049043  0.58980407     0.28820
H1211       H  0.32243430  0.80281956  0.61547679     0.19410
H1212       H  0.31279693  0.88568359  0.53324267     0.19420
C1213       C  0.16758244  0.69208771  0.87269268    -0.06410
C1214       C  0.15470878  0.65636186  0.86014263    -0.17540
C1215       C  0.12607321  0.62557764  0.87573585     0.10790
C1216       C  0.11018581  0.63032508  0.90493704    -0.06340
C1217       C  0.12333664  0.66576372  0.91795529    -0.17570
C1218       C  0.15146518  0.69668811  0.90201482     0.10820
S1219       S  0.11136392  0.58098847  0.85742553    -0.32540
S1220       S  0.16431791  0.74111208  0.91972503    -0.32540
H1221       H  0.17058316  0.75931052  0.88893088     0.28830
H1222       H  0.07412783  0.56527256  0.86601236     0.28820
H1223       H  0.16693637  0.65242570  0.83785105     0.19410
H1224       H  0.11115081  0.66940545  0.94042780     0.19420
C1225       C  0.21876983  0.75774720  0.76533231    -0.06410
C1226       C  0.21509446  0.78509152  0.74861843    -0.17540
C1227       C  0.21435408  0.78600681  0.71360699     0.10790
C1228       C  0.21792540  0.75934613  0.69496236    -0.06340
C1229       C  0.22138579  0.73199274  0.71173739    -0.17570
C1230       C  0.22242092  0.73122585  0.74655275     0.10820
S1231       S  0.20817668  0.82131787  0.69427395    -0.32540
S1232       S  0.23013865  0.69666918  0.76545052    -0.32540
H1233       H  0.25218713  0.71899635  0.79193449     0.28830
H1234       H  0.19050528  0.80123501  0.66521047     0.28820
H1235       H  0.21238553  0.80553945  0.76293433     0.19410
H1236       H  0.22456035  0.71175835  0.69751224     0.19420
C1237       C  0.28944327  0.81016816  0.87124994    -0.06410
C1238       C  0.28557083  0.81902903  0.90438258    -0.17540
C1239       C  0.31533942  0.84626813  0.92244804     0.10790
C1240       C  0.34975764  0.86658308  0.90685871    -0.06340
C1241       C  0.35410723  0.85796873  0.87401552    -0.17570
C1242       C  0.32484347  0.82914632  0.85641022     0.10820
S1243       S  0.30743255  0.85352850  0.96530484    -0.32540
S1244       S  0.33442613  0.81515942  0.81663953    -0.32540
H1245       H  0.37125167  0.84349590  0.81388150     0.28830
H1246       H  0.33395949  0.89110843  0.96712976     0.28820
H1247       H  0.25895114  0.80502361  0.91636365     0.19410
H1248       H  0.38090246  0.87324589  0.86257018     0.19420
C1249       C  0.49547574  0.68719608  0.87481653    -0.06410
C1250       C  0.46105869  0.65811333  0.88415169    -0.17540
C1251       C  0.45759629  0.62627209  0.89876325     0.10790
C1252       C  0.48947464  0.62375281  0.90532856    -0.06340
C1253       C  0.52389545  0.65298200  0.89564505    -0.17570
C1254       C  0.52722708  0.68456201  0.88060887     0.10820
S1255       S  0.41155779  0.58909772  0.90618089    -0.32540
S1256       S  0.57275356  0.72042244  0.86924018    -0.32540
H1257       H  0.56624713  0.74996074  0.87279074     0.28830
H1258       H  0.41881321  0.56147135  0.89531575     0.28820
H1259       H  0.43656701  0.65971355  0.87890957     0.19410
H1260       H  0.54857936  0.65159946  0.90042282     0.19420
C1261       C  0.49438860  0.86609284  0.90816704    -0.06410
C1262       C  0.51359600  0.85059242  0.92314393    -0.17540
C1263       C  0.51743992  0.82311295  0.90690449     0.10790
C1264       C  0.49987991  0.80916430  0.87555459    -0.06340
C1265       C  0.48045882  0.82490661  0.86089373    -0.17570
C1266       C  0.47805974  0.85342275  0.87652524     0.10820
S1267       S  0.54739029  0.80944589  0.92658704    -0.32540
S1268       S  0.45445202  0.87301042  0.85448148    -0.32540
H1269       H  0.44037458  0.88101743  0.88302672     0.28830
H1270       H  0.56202027  0.80517817  0.89647004     0.28820
H1271       H  0.52688893  0.86098495  0.94715411     0.19410
H1272       H  0.46658462  0.81471465  0.83710884     0.19420
C1273       C  0.49511206  0.68837623  0.58883882    -0.06410
C1274       C  0.51979539  0.67672908  0.59835459    -0.17540
C1275       C  0.51902941  0.64619737  0.58355151     0.10790
C1276       C  0.49424086  0.62742035  0.55675657    -0.06340
C1277       C  0.47028097  0.63998921  0.54660520    -0.17570
C1278       C  0.46966715  0.66923888  0.56283712     0.10820
S1279       S  0.54918887  0.63207848  0.60182531    -0.32540
S1280       S  0.43404669  0.67884397  0.55049468    -0.32540
H1281       H  0.42742301  0.68676060  0.58304040     0.28830
H1282       H  0.51975173  0.59698602  0.60967483     0.28820
H1283       H  0.53943373  0.69107925  0.61829184     0.19410
H1284       H  0.45080529  0.62620632  0.52645464     0.19420
C1285       C  0.49847739  0.80965875  0.59089761    -0.06410
C1286       C  0.52965689  0.84484454  0.59182259    -0.17540
C1287       C  0.53041905  0.87434561  0.57487788     0.10790
C1288       C  0.49865081  0.86903966  0.55731870    -0.06340
C1289       C  0.46749538  0.83348235  0.55657238    -0.17570
C1290       C  0.46698753  0.80403810  0.57320588     0.10820
S1291       S  0.57349157  0.91711189  0.57543826    -0.32540
S1292       S  0.42479986  0.76032268  0.57172731    -0.32540
H1293       H  0.42836780  0.74867397  0.60371747     0.28830
H1294       H  0.57331883  0.92208403  0.54068588     0.28820
H1295       H  0.55400442  0.84911247  0.60516290     0.19410
H1296       H  0.44274630  0.82852873  0.54357962     0.19420
C1297       C  0.50265703  0.75036731  0.76773503    -0.06410
C1298       C  0.53349347  0.77694872  0.75038385    -0.17540
C1299       C  0.53422343  0.77723020  0.71540525     0.10790
C1300       C  0.50317071  0.75077536  0.69731463    -0.06340
C1301       C  0.47240007  0.72420921  0.71468762    -0.17570
C1302       C  0.47160186  0.72399549  0.74958487     0.10820
S1303       S  0.57582675  0.81133053  0.69539895    -0.32540
S1304       S  0.42964546  0.69024019  0.76939023    -0.32540
H1305       H  0.43202335  0.71257483  0.79662269     0.28830
H1306       H  0.57272973  0.78980834  0.66726927     0.28820
H1307       H  0.55740157  0.79715674  0.76420947     0.19410
H1308       H  0.44839666  0.70408845  0.70089910     0.19420
loop_ 
_geom_bond_atom_site_label_1 
_geom_bond_atom_site_label_2 
_geom_bond_distance 
_geom_bond_site_symmetry_2 
_ccdc_geom_bond_type 
C1            C2   1.406       .  A
C1            C6   1.406       .  A
C1          C619   1.487       .  S
C2            C3   1.400       .  A
C2            H7   1.084       .  S
C3            C4   1.400       .  A
C3          C646   1.476       .  S
C4            C5   1.401       .  A
C4            H8   1.084       .  S
C5            C6   1.404       .  A
C5          C631   1.476       .  S
C6            H9   1.083       .  S
C10          C11   1.399       .  A
C10          C15   1.403       .  A
C10         C595   1.475       .  S
C11          C12   1.400       .  A
C11          H16   1.084       .  S
C12          C13   1.401       .  A
C12         C643   1.477       .  S
C13          C14   1.409       .  A
C13          H17   1.083       .  S
C14          C15   1.409       .  A
C14         C610   1.495       .  S
C15          H18   1.082       .  S
C19          C20   1.407       .  A
C19          C24   1.411       .  A
C19         C583   1.496       .  S
C20          C21   1.399       .  A
C20          H25   1.082       .  S
C21          C22   1.400       .  A
C21         C571   1.476       .  S
C22          C23   1.402       .  A
C22          H26   1.084       .  S
C23          C24   1.405       .  A
C23         C559   1.486       .  S
C24          H27   1.083       .  S
C28          C29   1.403       .  A
C28          C33   1.405       .  A
C28         C547   1.478       .  S
C29          C30   1.401       .  A
C29          H34   1.084       .  S
C30          C31   1.400       .  A
C30         C574   1.476       .  S
C31          C32   1.402       .  A
C31          H35   1.084       .  S
C32          C33   1.404       .  A
C32         C538   1.479       .  S
C33          H36   1.084       .  S
C37          C38   1.402       .  A
C37          C42   1.401       .  A
C37         C523   1.473       .  S
C38          C39   1.406       .  A
C38          H43   1.084       .  S
C39          C40   1.405       .  A
C39         C499   1.486       .  S
C40          C41   1.401       .  A
C40          H44   1.084       .  S
C41          C42   1.400       .  A
C41         C511   1.472       .  S
C42          H45   1.084       .  S
C46          C47   1.401       .  A
C46          C51   1.403       .  A
C46         C487   1.480       .  S
C47          C48   1.401       .  A
C47          H52   1.084       .  S
C48          C49   1.403       .  A
C48         C502   1.484       .  S
C49          C50   1.408       .  A
C49          H53   1.083       .  S
C50          C51   1.407       .  A
C50         C478   1.491       .  S
C51          H54   1.083       .  S
C55          C56   1.401       .  A
C55          C60   1.403       .  A
C55         C466   1.478       .  S
C56          C57   1.400       .  A
C56          H61   1.084       .  S
C57          C58   1.402       .  A
C57         C451   1.479       .  S
C58          C59   1.405       .  A
C58          H62   1.084       .  S
C59          C60   1.405       .  A
C59         C439   1.486       .  S
C60          H63   1.083       .  S
C64          C65   1.405       .  A
C64          C69   1.403       .  A
C64         C427   1.487       .  S
C65          C66   1.405       .  A
C65          H70   1.083       .  S
C66          C67   1.405       .  A
C66         C415   1.488       .  S
C67          C68   1.402       .  A
C67          H71   1.084       .  S
C68          C69   1.402       .  A
C68         C454   1.482       .  S
C69          H72   1.083       .  S
C73          C74   1.401       .  A
C73          C78   1.403       .  A
C73         C379   1.474       .  S
C74          C75   1.401       .  A
C74          H79   1.084       .  S
C75          C76   1.401       .  A
C75         C403   1.473       .  S
C76          C77   1.402       .  A
C76          H80   1.084       .  S
C77          C78   1.403       .  A
C77         C391   1.477       .  S
C78          H81   1.084       .  S
C82          C83   1.407       .  A
C82          C87   1.408       .  A
C82         C358   1.491       .  S
C83          C84   1.402       .  A
C83          H88   1.083       .  S
C84          C85   1.402       .  A
C84         C394   1.478       .  S
C85          C86   1.399       .  A
C85          H89   1.084       .  S
C86          C87   1.403       .  A
C86         C367   1.475       .  S
C87          H90   1.084       .  S
C91          C92   1.402       .  A
C91          C96   1.401       .  A
C91         C343   1.473       .  S
C92          C93   1.403       .  A
C92          H97   1.084       .  S
C93          C94   1.404       .  A
C93         C334   1.479       .  S
C94          C95   1.405       .  A
C94          H98   1.084       .  S
C95          C96   1.401       .  A
C95         C319   1.480       .  S
C96          H99   1.084       .  S
C100        C101   1.402       .  A
C100        C105   1.401       .  A
C100        C310   1.473       .  S
C101        C102   1.402       .  A
C101        H106   1.084       .  S
C102        C103   1.401       .  A
C102        C322   1.477       .  S
C103        C104   1.404       .  A
C103        H107   1.084       .  S
C104        C105   1.404       .  A
C104        C295   1.484       .  S
C105        H108   1.084       .  S
O109       Zr121   2.439       .  S
O109        C111   1.286       .  A
O110       Zr801   2.425   1_554  S
O110        C111   1.288       .  A
C111        C622   1.496       .  S
O112       Zr124   2.447       .  S
O112        C114   1.288       .  A
O113       Zr148   2.423       .  S
O113        C114   1.286       .  A
C114        C355   1.469       .  S
O115       Zr124   2.455       .  S
O115        C117   1.291       .  A
O116       Zr147   2.415       .  S
O116        C117   1.285       .  A
C117        C598   1.486       .  S
O118       Zr121   2.440       .  S
O118        C120   1.289       .  A
O119       Zr802   2.422   1_554  S
O119        C120   1.285       .  A
C120        C382   1.490       .  S
Zr121       O122   2.434       .  S
Zr121       O123   2.435       .  S
Zr121       O151   2.369       .  S
Zr121       O153   2.369       .  S
Zr121       O781   2.375   1_554  S
Zr121       O782   2.367   1_554  S
O122        H165   0.990       .  S
O123        H164   0.990       .  S
O123        H168   0.990       .  S
Zr124       O125   2.435       .  S
Zr124       O126   2.435       .  S
Zr124       O128   2.372       .  S
Zr124       O127   2.372       .  S
Zr124       O152   2.369       .  S
Zr124       O154   2.378       .  S
O125        H166   0.990       .  S
O125        H169   0.990       .  S
O126        H159   0.990       .  S
O127       Zr147   2.378       .  S
O127       Zr775   2.375       .  S
O128       Zr148   2.383       .  S
O128       Zr775   2.367       .  S
O128        H155   0.965       .  S
O129       Zr141   2.432       .  S
O129        C131   1.285       .  A
O130       Zr802   2.431   1_554  S
O130        C131   1.287       .  A
C131        C298   1.464       .  S
O132       Zr144   2.438       .  S
O132        C134   1.286       .  A
O133       Zr147   2.419       .  S
O133        C134   1.287       .  A
C134        C475   1.492       .  S
O135       Zr144   2.444       .  S
O135        C137   1.288       .  A
O136       Zr148   2.423       .  S
O136        C137   1.286       .  A
C137        C331   1.472       .  S
O138       Zr141   2.444       .  S
O138        C140   1.289       .  A
O139       Zr801   2.420   1_554  S
O139        C140   1.286       .  A
C140        C514   1.482       .  S
Zr141       O142   2.436       .  S
Zr141       O143   2.434       .  S
Zr141       O153   2.367       .  S
Zr141       O151   2.376       .  S
Zr141       O803   2.372   1_554  S
Zr141       O804   2.369   1_554  S
O142        H162   0.990       .  S
O142        H167   0.990       .  S
O143        H163   0.990       .  S
Zr144       O145   2.434       .  S
Zr144       O146   2.434       .  S
Zr144       O150   2.374       .  S
Zr144       O149   2.366       .  S
Zr144       O154   2.373       .  S
Zr144       O152   2.371       .  S
O145        H161   0.990       .  S
O146        H160   0.990       .  S
O146        H170   0.990       .  S
Zr147       O764   2.425       .  S
Zr147       O793   2.420       .  S
Zr147       O150   2.379       .  S
Zr147       O152   2.382       .  S
Zr147       O807   2.380       .  S
Zr148       O773   2.422       .  S
Zr148       O784   2.431       .  S
Zr148       O149   2.384       .  S
Zr148       O154   2.382       .  S
Zr148       O805   2.381       .  S
O149       Zr795   2.372       .  S
O149        H157   0.965       .  S
O150       Zr795   2.369       .  S
O151       Zr802   2.381   1_554  S
O152        H156   0.966       .  S
O153       Zr801   2.380   1_554  S
O153        H158   0.966       .  S
O171       Zr183   2.451   1_455  S
O171        C173   1.289       .  A
O172       Zr209   2.419       .  S
O172        C173   1.285       .  A
C173        C562   1.469       .  S
O174       Zr186   2.447       .  S
O174        C176   1.289       .  A
O175       Zr864   2.415   1_554  S
O175        C176   1.283       .  A
C176        C406   1.490       .  S
O177       Zr186   2.439   1_455  S
O177        C179   1.287       .  A
O178       Zr863   2.427   1_554  S
O178        C179   1.286       .  A
C179        C535   1.468       .  S
O180       Zr183   2.451       .  S
O180        C182   1.290       .  A
O181       Zr210   2.418       .  S
O181        C182   1.285       .  A
C182        C370   1.477       .  S
Zr183       O184   2.434       .  S
Zr183       O185   2.435       .  S
Zr183       O189   2.373   1_655  S
Zr183       O190   2.371       .  S
Zr183       O213   2.376       .  S
Zr183       O215   2.374   1_655  S
O184        H227   0.990       .  S
O185        H226   0.990   1_655  S
O185        H230   0.990       .  S
Zr186       O187   2.436       .  S
Zr186       O188   2.435       .  S
Zr186       O214   2.377   1_655  S
Zr186       O216   2.375       .  S
Zr186       O844   2.369   1_554  S
Zr186       O843   2.374   1_654  S
O187        H228   0.990       .  S
O187        H231   0.990       .  S
O188        H221   0.990   1_655  S
O189       Zr209   2.381       .  S
O189       Zr840   2.374   1_455  S
O190       Zr210   2.382       .  S
O190       Zr840   2.369       .  S
O190        H217   0.966       .  S
O191       Zr203   2.438       .  S
O191        C193   1.286       .  A
O192       Zr210   2.419       .  S
O192        C193   1.285       .  A
C193        C463   1.464       .  S
O194       Zr206   2.443   1_455  S
O194        C196   1.288       .  A
O195       Zr863   2.420   1_554  S
O195        C196   1.286       .  A
C196        C526   1.479       .  S
O197       Zr206   2.443       .  S
O197        C199   1.289       .  A
O198       Zr864   2.423   1_554  S
O198        C199   1.285       .  A
C199        C430   1.495       .  S
O200       Zr203   2.428   1_455  S
O200        C202   1.283       .  A
O201       Zr209   2.426       .  S
O201        C202   1.288       .  A
C202        C490   1.494       .  S
Zr203       O204   2.436       .  S
Zr203       O205   2.434       .  S
Zr203       O211   2.361       .  S
Zr203       O212   2.371   1_655  S
Zr203       O215   2.370   1_655  S
Zr203       O213   2.372       .  S
O204        H224   0.990       .  S
O204        H229   0.990       .  S
O205        H225   0.990       .  S
Zr206       O207   2.433       .  S
Zr206       O208   2.434       .  S
Zr206       O216   2.373       .  S
Zr206       O214   2.369   1_655  S
Zr206       O866   2.371   1_654  S
Zr206       O865   2.365   1_554  S
O207        H223   0.990       .  S
O208        H222   0.990       .  S
O208        H232   0.990       .  S
Zr209       O832   2.427       .  S
Zr209       O849   2.420       .  S
Zr209       O212   2.377       .  S
Zr209       O215   2.383       .  S
Zr209       O868   2.384       .  S
Zr210       O829   2.415       .  S
Zr210       O852   2.423       .  S
Zr210       O211   2.379       .  S
Zr210       O213   2.380       .  S
Zr210       O870   2.381       .  S
O211       Zr860   2.365       .  S
O211        H219   0.964       .  S
O212       Zr860   2.371   1_455  S
O214       Zr863   2.384   1_554  S
O214        H218   0.966       .  S
O215        H220   0.966       .  S
O216       Zr864   2.381   1_554  S
O233       Zr245   2.446       .  S
O233        C235   1.288       .  A
O234       Zr271   2.422       .  S
O234        C235   1.285       .  A
C235        C607   1.468       .  S
O236       Zr248   2.438   1_545  S
O236        C238   1.286       .  A
O237       Zr926   2.422   1_554  S
O237        C238   1.285       .  A
C238        C418   1.464       .  S
O239       Zr248   2.444       .  S
O239        C241   1.288       .  A
O240       Zr925   2.417   1_554  S
O240        C241   1.287       .  A
C241        C634   1.492       .  S
O242       Zr245   2.438   1_545  S
O242        C244   1.285       .  A
O243       Zr272   2.426       .  S
O243        C244   1.288       .  A
C244        C442   1.498       .  S
Zr245       O246   2.434       .  S
Zr245       O247   2.435       .  S
Zr245       O251   2.371       .  S
Zr245       O252   2.371   1_565  S
Zr245       O275   2.373   1_565  S
Zr245       O277   2.368       .  S
O246        H289   0.990       .  S
O247        H288   0.990       .  S
O247        H292   0.990       .  S
Zr248       O249   2.436       .  S
Zr248       O250   2.435       .  S
Zr248       O276   2.371       .  S
Zr248       O278   2.376   1_565  S
Zr248       O906   2.371   1_564  S
Zr248       O905   2.371   1_554  S
O249        H290   0.990   1_565  S
O249        H293   0.990   1_565  S
O250        H283   0.990       .  S
O251       Zr271   2.378       .  S
O251       Zr902   2.371       .  S
O252       Zr272   2.383       .  S
O252       Zr902   2.371   1_545  S
O252        H279   0.966       .  S
O253       Zr265   2.443   1_545  S
O253        C255   1.288       .  A
O254       Zr272   2.423       .  S
O254        C255   1.286       .  A
C255        C346   1.476       .  S
O256       Zr268   2.436       .  S
O256        C258   1.286       .  A
O257       Zr925   2.428   1_554  S
O257        C258   1.287       .  A
C258        C550   1.470       .  S
O259       Zr268   2.437   1_545  S
O259        C261   1.287       .  A
O260       Zr926   2.430   1_554  S
O260        C261   1.287       .  A
C261        C307   1.474       .  S
O262       Zr265   2.443       .  S
O262        C264   1.288       .  A
O263       Zr271   2.423       .  S
O263        C264   1.286       .  A
C264        C586   1.469       .  S
Zr265       O266   2.435       .  S
Zr265       O267   2.434       .  S
Zr265       O273   2.368   1_565  S
Zr265       O274   2.373       .  S
Zr265       O277   2.368       .  S
Zr265       O275   2.374   1_565  S
O266        H286   0.990   1_565  S
O266        H291   0.990       .  S
O267        H287   0.990   1_565  S
Zr268       O269   2.433       .  S
Zr268       O270   2.434       .  S
Zr268       O278   2.372   1_565  S
Zr268       O276   2.369       .  S
Zr268       O928   2.373   1_554  S
Zr268       O927   2.368   1_564  S
O269        H285   0.990       .  S
O270        H284   0.990   1_565  S
O270        H294   0.990   1_565  S
Zr271       O894   2.417       .  S
Zr271       O911   2.428       .  S
Zr271       O274   2.380       .  S
Zr271       O277   2.383       .  S
Zr271       O930   2.382       .  S
Zr272       O891   2.422       .  S
Zr272       O914   2.430       .  S
Zr272       O273   2.383       .  S
Zr272       O275   2.383       .  S
Zr272       O932   2.382       .  S
O273       Zr922   2.368   1_545  S
O273        H281   0.965       .  S
O274       Zr922   2.373       .  S
O276       Zr925   2.382   1_554  S
O276        H280   0.966       .  S
O277        H282   0.965       .  S
O278       Zr926   2.382   1_554  S
C295        C296   1.407       .  A
C295        C300   1.415       .  A
C296        C297   1.398       .  A
C296        H305   1.084       .  S
C297        C298   1.411       .  A
C297        S301   1.809       .  S
C298        C299   1.401       .  A
C299        C300   1.398       .  A
C299        H306   1.083       .  S
C300        S302   1.804       .  S
S301        H304   1.402       .  S
S302        H303   1.407       .  S
C307        C308   1.403       .  A
C307        C312   1.414       .  A
C308        C309   1.400       .  A
C308        H317   1.083       .  S
C309        C310   1.412       .  A
C309        S313   1.804       .  S
C310        C311   1.400       .  A
C311        C312   1.398       .  A
C311        H318   1.084       .  S
C312        S314   1.804       .  S
S313        H316   1.405       .  S
S314        H315   1.406       .  S
C319        C320   1.406       .  A
C319        C324   1.412       .  A
C320        C321   1.402       .  A
C320        H329   1.084       .  S
C321        C322   1.412       .  A
C321        S325   1.804       .  S
C322        C323   1.402       .  A
C323        C324   1.395       .  A
C323        H330   1.084       .  S
C324        S326   1.802       .  S
S325        H328   1.406       .  S
S326        H327   1.406       .  S
C331        C332   1.401       .  A
C331        C336   1.413       .  A
C332        C333   1.399       .  A
C332        H341   1.084       .  S
C333        C334   1.414       .  A
C333        S337   1.802       .  S
C334        C335   1.403       .  A
C335        C336   1.400       .  A
C335        H342   1.084       .  S
C336        S338   1.804       .  S
S337        H340   1.406       .  S
S338        H339   1.404       .  S
C343        C344   1.402       .  A
C343        C348   1.411       .  A
C344        C345   1.399       .  A
C344        H353   1.084       .  S
C345        C346   1.414       .  A
C345        S349   1.804       .  S
C346        C347   1.405       .  A
C347        C348   1.400       .  A
C347        H354   1.084       .  S
C348        S350   1.805       .  S
S349        H352   1.407       .  S
S350        H351   1.404       .  S
C355        C356   1.399       .  A
C355        C360   1.410       .  A
C356        C357   1.400       .  A
C356        H365   1.084       .  S
C357        C358   1.420       .  A
C357        S361   1.805       .  S
C358        C359   1.407       .  A
C359        C360   1.400       .  A
C359        H366   1.083       .  S
C360        S362   1.804       .  S
S361        H364   1.407       .  S
S362        H363   1.403       .  S
C367        C368   1.402       .  A
C367        C372   1.412       .  A
C368        C369   1.400       .  A
C368        H377   1.084       .  S
C369        C370   1.414       .  A
C369        S373   1.803       .  S
C370        C371   1.404       .  A
C371        C372   1.400       .  A
C371        H378   1.084       .  S
C372        S374   1.805       .  S
S373        H376   1.406       .  S
S374        H375   1.404       .  S
C379        C380   1.400       .  A
C379        C384   1.408       .  A
C380        C381   1.400       .  A
C380        H389   1.084       .  S
C381        C382   1.421       .  A
C381        S385   1.803       .  S
C382        C383   1.410       .  A
C383        C384   1.398       .  A
C383        H390   1.084       .  S
C384        S386   1.805       .  S
S385        H388   1.402       .  S
S386        H387   1.406       .  S
C391        C392   1.402       .  A
C391        C396   1.413       .  A
C392        C393   1.396       .  A
C392        H401   1.084       .  S
C393        C394   1.413       .  A
C393        S397   1.805       .  S
C394        C395   1.404       .  A
C395        C396   1.402       .  A
C395        H402   1.084       .  S
C396        S398   1.804       .  S
S397        H400   1.407       .  S
S398        H399   1.406       .  S
C403        C404   1.398       .  A
C403        C408   1.410       .  A
C404        C405   1.396       .  A
C404        H413   1.084       .  S
C405        C406   1.420       .  A
C405        S409   1.797       .  S
C406        C407   1.409       .  A
C407        C408   1.400       .  A
C407        H414   1.084       .  S
C408        S410   1.804       .  S
S409        H412   1.408       .  S
S410        H411   1.406       .  S
C415        C416   1.408       .  A
C415        C420   1.417       .  A
C416        C417   1.398       .  A
C416        H425   1.084       .  S
C417        C418   1.410       .  A
C417        S421   1.808       .  S
C418        C419   1.400       .  A
C419        C420   1.399       .  A
C419        H426   1.084       .  S
C420        S422   1.804       .  S
S421        H424   1.403       .  S
S422        H423   1.407       .  S
C427        C428   1.403       .  A
C427        C432   1.413       .  A
C428        C429   1.399       .  A
C428        H437   1.084       .  S
C429        C430   1.421       .  A
C429       S1087   1.802       .  S
C430        C431   1.410       .  A
C431        C432   1.397       .  A
C431        H438   1.083       .  S
C432        S434   1.805       .  S
S433       C1083   1.802       .  S
S433        H436   1.405       .  S
S434        H435   1.407       .  S
C439        C440   1.401       .  A
C439        C444   1.414       .  A
C440        C441   1.397       .  A
C440        H449   1.084       .  S
C441        C442   1.423       .  A
C441        S445   1.801       .  S
C442        C443   1.410       .  A
C443        C444   1.400       .  A
C443        H450   1.083       .  S
C444        S446   1.805       .  S
S445        H448   1.407       .  S
S446        H447   1.407       .  S
C451        C452   1.402       .  A
C451        C456   1.413       .  A
C452        C453   1.396       .  A
C452        H461   1.084       .  S
C453        C454   1.415       .  A
C453        S457   1.804       .  S
C454        C455   1.405       .  A
C455        C456   1.400       .  A
C455        H462   1.084       .  S
C456        S458   1.804       .  S
S457        H460   1.407       .  S
S458        H459   1.406       .  S
C463        C464   1.398       .  A
C463        C468   1.412       .  A
C464        C465   1.397       .  A
C464        H473   1.084       .  S
C465        C466   1.416       .  A
C465        S469   1.805       .  S
C466        C467   1.403       .  A
C467        C468   1.399       .  A
C467        H474   1.084       .  S
C468        S470   1.805       .  S
S469        H472   1.406       .  S
S470        H471   1.403       .  S
C475        C476   1.407       .  A
C475        C480   1.420       .  A
C476        C477   1.396       .  A
C476        H485   1.083       .  S
C477        C478   1.415       .  A
C477        S481   1.799       .  S
C478        C479   1.405       .  A
C479        C480   1.398       .  A
C479        H486   1.084       .  S
C480        S482   1.801       .  S
S481        H484   1.406       .  S
S482        H483   1.408       .  S
C487        C488   1.400       .  A
C487        C492   1.411       .  A
C488        C489   1.398       .  A
C488        H497   1.084       .  S
C489        C490   1.425       .  A
C489        S493   1.801       .  S
C490        C491   1.408       .  A
C491        C492   1.396       .  A
C491        H498   1.083       .  S
C492        S494   1.801       .  S
S493        H496   1.408       .  S
S494        H495   1.406       .  S
C499        C500   1.405       .  A
C499        C504   1.416       .  A
C500        C501   1.400       .  A
C500        H509   1.084       .  S
C501        C502   1.415       .  A
C501        S505   1.805       .  S
C502        C503   1.403       .  A
C503        C504   1.398       .  A
C503        H510   1.084       .  S
C504        S506   1.803       .  S
S505        H508   1.406       .  S
S506        H507   1.406       .  S
C511        C512   1.400       .  A
C511        C516   1.410       .  A
C512        C513   1.399       .  A
C512        H521   1.084       .  S
C513        C514   1.417       .  A
C513        S517   1.803       .  S
C514        C515   1.407       .  A
C515        C516   1.400       .  A
C515        H522   1.084       .  S
C516        S518   1.805       .  S
S517        H520   1.407       .  S
S518        H519   1.404       .  S
C523        C524   1.402       .  A
C523        C528   1.411       .  A
C524        C525   1.401       .  A
C524        H533   1.084       .  S
C525        C526   1.415       .  A
C525        S529   1.803       .  S
C526        C527   1.403       .  A
C527        C528   1.397       .  A
C527        H534   1.082       .  S
C528        S530   1.805       .  S
S529        H532   1.407       .  S
S530        H531   1.404       .  S
C535        C536   1.402       .  A
C535        C540   1.410       .  A
C536        C537   1.400       .  A
C536        H545   1.084       .  S
C537        C538   1.414       .  A
C537        S541   1.803       .  S
C538        C539   1.404       .  A
C539        C540   1.397       .  A
C539        H546   1.084       .  S
C540        S542   1.802       .  S
S541        H544   1.406       .  S
S542        H543   1.405       .  S
C547        C548   1.405       .  A
C547        C552   1.412       .  A
C548        C549   1.400       .  A
C548        H557   1.084       .  S
C549        C550   1.411       .  A
C549        S553   1.804       .  S
C550        C551   1.402       .  A
C551        C552   1.398       .  A
C551        H558   1.084       .  S
C552        S554   1.804       .  S
S553        H556   1.405       .  S
S554        H555   1.406       .  S
C559        C560   1.406       .  A
C559        C564   1.417       .  A
C560        C561   1.400       .  A
C560        H569   1.084       .  S
C561        C562   1.410       .  A
C561        S565   1.804       .  S
C562        C563   1.400       .  A
C563        C564   1.401       .  A
C563        H570   1.084       .  S
C564        S566   1.804       .  S
S565        H568   1.404       .  S
S566        H567   1.406       .  S
C571        C572   1.404       .  A
C571        C576   1.413       .  A
C572        C573   1.403       .  A
C572        H581   1.084       .  S
C573        C574   1.413       .  A
C573        S577   1.804       .  S
C574        C575   1.401       .  A
C575        C576   1.395       .  A
C575        H582   1.084       .  S
C576        S578   1.805       .  S
S577        H580   1.406       .  S
S578        H579   1.407       .  S
C583        C584   1.408       .  A
C583        C588   1.422       .  A
C584        C585   1.397       .  A
C584        H593   1.083       .  S
C585        C586   1.408       .  A
C585        S589   1.802       .  S
C586        C587   1.399       .  A
C587        C588   1.404       .  A
C587        H594   1.082       .  S
C588        S590   1.810       .  S
S589        H592   1.405       .  S
S590        H591   1.407       .  S
C595        C596   1.399       .  A
C595        C600   1.411       .  A
C596        C597   1.400       .  A
C596        H605   1.084       .  S
C597        C598   1.419       .  A
C597        S601   1.802       .  S
C598        C599   1.406       .  A
C599        C600   1.400       .  A
C599        H606   1.084       .  S
C600        S602   1.805       .  S
S601        H604   1.407       .  S
S602        H603   1.404       .  S
C607        C608   1.400       .  A
C607        C612   1.408       .  A
C608        C609   1.401       .  A
C608        H617   1.084       .  S
C609        C610   1.421       .  A
C609        S613   1.803       .  S
C610        C611   1.409       .  A
C611        C612   1.398       .  A
C611        H618   1.083       .  S
C612        S614   1.804       .  S
S613        H616   1.406       .  S
S614        H615   1.404       .  S
C619        C620   1.402       .  A
C619        C624   1.414       .  A
C620        C621   1.397       .  A
C620        H629   1.084       .  S
C621        C622   1.422       .  A
C621        S625   1.800       .  S
C622        C623   1.410       .  A
C623        C624   1.400       .  A
C623        H630   1.083       .  S
C624        S626   1.802       .  S
S625        H628   1.407       .  S
S626        H627   1.406       .  S
C631        C632   1.400       .  A
C631        C636   1.410       .  A
C632        C633   1.400       .  A
C632        H641   1.084       .  S
C633        C634   1.421       .  A
C633        S637   1.801       .  S
C634        C635   1.409       .  A
C635        C636   1.396       .  A
C635        H642   1.083       .  S
C636        S638   1.804       .  S
S637        H640   1.408       .  S
S638        H639   1.406       .  S
C643        C644   1.403       .  A
C643        C648   1.413       .  A
C644        C645   1.400       .  A
C644        H653   1.084       .  S
C645        C646   1.413       .  A
C645        S649   1.804       .  S
C646        C647   1.402       .  A
C647        C648   1.397       .  A
C647        H654   1.084       .  S
C648        S650   1.805       .  S
S649        H652   1.406       .  S
S650        H651   1.406       .  S
C655        C656   1.406       .  A
C655        C660   1.406       .  A
C655       C1273   1.487       .  S
C656        C657   1.400       .  A
C656        H661   1.084       .  S
C657        C658   1.400       .  A
C657       C1300   1.476       .  S
C658        C659   1.401       .  A
C658        H662   1.084       .  S
C659        C660   1.404       .  A
C659       C1285   1.476       .  S
C660        H663   1.083       .  S
C664        C665   1.399       .  A
C664        C669   1.403       .  A
C664       C1249   1.475       .  S
C665        C666   1.400       .  A
C665        H670   1.084       .  S
C666        C667   1.401       .  A
C666       C1297   1.477       .  S
C667        C668   1.409       .  A
C667        H671   1.083       .  S
C668        C669   1.409       .  A
C668       C1264   1.495       .  S
C669        H672   1.082       .  S
C673        C674   1.407       .  A
C673        C678   1.411       .  A
C673       C1237   1.496       .  S
C674        C675   1.399       .  A
C674        H679   1.082       .  S
C675        C676   1.400       .  A
C675       C1225   1.476       .  S
C676        C677   1.402       .  A
C676        H680   1.084       .  S
C677        C678   1.405       .  A
C677       C1213   1.486       .  S
C678        H681   1.083       .  S
C682        C683   1.403       .  A
C682        C687   1.405       .  A
C682       C1201   1.478       .  S
C683        C684   1.401       .  A
C683        H688   1.084       .  S
C684        C685   1.400       .  A
C684       C1228   1.476       .  S
C685        C686   1.402       .  A
C685        H689   1.084       .  S
C686        C687   1.404       .  A
C686       C1192   1.479       .  S
C687        H690   1.084       .  S
C691        C692   1.402       .  A
C691        C696   1.401       .  A
C691       C1177   1.473       .  S
C692        C693   1.406       .  A
C692        H697   1.084       .  S
C693        C694   1.405       .  A
C693       C1153   1.486       .  S
C694        C695   1.401       .  A
C694        H698   1.084       .  S
C695        C696   1.400       .  A
C695       C1165   1.472       .  S
C696        H699   1.084       .  S
C700        C701   1.401       .  A
C700        C705   1.403       .  A
C700       C1141   1.480       .  S
C701        C702   1.401       .  A
C701        H706   1.084       .  S
C702        C703   1.403       .  A
C702       C1156   1.484       .  S
C703        C704   1.408       .  A
C703        H707   1.083       .  S
C704        C705   1.407       .  A
C704       C1132   1.491       .  S
C705        H708   1.083       .  S
C709        C710   1.401       .  A
C709        C714   1.403       .  A
C709       C1120   1.478       .  S
C710        C711   1.400       .  A
C710        H715   1.084       .  S
C711        C712   1.402       .  A
C711       C1105   1.479       .  S
C712        C713   1.405       .  A
C712        H716   1.084       .  S
C713        C714   1.405       .  A
C713       C1093   1.486       .  S
C714        H717   1.083       .  S
C718        C719   1.405       .  A
C718        C723   1.403       .  A
C718       C1081   1.487       .  S
C719        C720   1.405       .  A
C719        H724   1.083       .  S
C720        C721   1.405       .  A
C720       C1069   1.488       .  S
C721        C722   1.402       .  A
C721        H725   1.084       .  S
C722        C723   1.402       .  A
C722       C1108   1.482       .  S
C723        H726   1.083       .  S
C727        C728   1.401       .  A
C727        C732   1.403       .  A
C727       C1033   1.474       .  S
C728        C729   1.401       .  A
C728        H733   1.084       .  S
C729        C730   1.401       .  A
C729       C1057   1.473       .  S
C730        C731   1.402       .  A
C730        H734   1.084       .  S
C731        C732   1.403       .  A
C731       C1045   1.477       .  S
C732        H735   1.084       .  S
C736        C737   1.407       .  A
C736        C741   1.408       .  A
C736       C1012   1.491       .  S
C737        C738   1.402       .  A
C737        H742   1.083       .  S
C738        C739   1.402       .  A
C738       C1048   1.478       .  S
C739        C740   1.399       .  A
C739        H743   1.084       .  S
C740        C741   1.403       .  A
C740       C1021   1.475       .  S
C741        H744   1.084       .  S
C745        C746   1.402       .  A
C745        C750   1.401       .  A
C745        C997   1.473       .  S
C746        C747   1.403       .  A
C746        H751   1.084       .  S
C747        C748   1.404       .  A
C747        C988   1.479       .  S
C748        C749   1.405       .  A
C748        H752   1.084       .  S
C749        C750   1.401       .  A
C749        C973   1.480       .  S
C750        H753   1.084       .  S
C754        C755   1.402       .  A
C754        C759   1.401       .  A
C754        C964   1.473       .  S
C755        C756   1.402       .  A
C755        H760   1.084       .  S
C756        C757   1.401       .  A
C756        C976   1.477       .  S
C757        C758   1.404       .  A
C757        H761   1.084       .  S
C758        C759   1.404       .  A
C758        C949   1.484       .  S
C759        H762   1.084       .  S
O763       Zr775   2.439       .  S
O763        C765   1.286       .  A
O764        C765   1.288       .  A
C765       C1276   1.496       .  S
O766       Zr778   2.447       .  S
O766        C768   1.288       .  A
O767       Zr802   2.423       .  S
O767        C768   1.286       .  A
C768       C1009   1.469       .  S
O769       Zr778   2.455       .  S
O769        C771   1.291       .  A
O770       Zr801   2.415       .  S
O770        C771   1.285       .  A
C771       C1252   1.486       .  S
O772       Zr775   2.440       .  S
O772        C774   1.289       .  A
O773        C774   1.285       .  A
C774       C1036   1.490       .  S
Zr775       O776   2.434       .  S
Zr775       O777   2.435       .  S
Zr775       O805   2.369       .  S
Zr775       O807   2.369       .  S
O776        H819   0.990       .  S
O777        H818   0.990       .  S
O777        H822   0.990       .  S
Zr778       O779   2.435       .  S
Zr778       O780   2.435       .  S
Zr778       O782   2.372       .  S
Zr778       O781   2.372       .  S
Zr778       O806   2.369       .  S
Zr778       O808   2.378       .  S
O779        H820   0.990       .  S
O779        H823   0.990       .  S
O780        H813   0.990       .  S
O781       Zr801   2.378       .  S
O782       Zr802   2.383       .  S
O782        H809   0.965       .  S
O783       Zr795   2.432       .  S
O783        C785   1.285       .  A
O784        C785   1.287       .  A
C785        C952   1.464       .  S
O786       Zr798   2.438       .  S
O786        C788   1.286       .  A
O787       Zr801   2.419       .  S
O787        C788   1.287       .  A
C788       C1129   1.492       .  S
O789       Zr798   2.444       .  S
O789        C791   1.288       .  A
O790       Zr802   2.423       .  S
O790        C791   1.286       .  A
C791        C985   1.472       .  S
O792       Zr795   2.444       .  S
O792        C794   1.289       .  A
O793        C794   1.286       .  A
C794       C1168   1.482       .  S
Zr795       O796   2.436       .  S
Zr795       O797   2.434       .  S
Zr795       O807   2.367       .  S
Zr795       O805   2.376       .  S
O796        H816   0.990       .  S
O796        H821   0.990       .  S
O797        H817   0.990       .  S
Zr798       O799   2.434       .  S
Zr798       O800   2.434       .  S
Zr798       O804   2.374       .  S
Zr798       O803   2.366       .  S
Zr798       O808   2.373       .  S
Zr798       O806   2.371       .  S
O799        H815   0.990       .  S
O800        H814   0.990       .  S
O800        H824   0.990       .  S
Zr801       O804   2.379       .  S
Zr801       O806   2.382       .  S
Zr802       O803   2.384       .  S
Zr802       O808   2.382       .  S
O803        H811   0.965       .  S
O806        H810   0.966       .  S
O807        H812   0.966       .  S
O825       Zr837   2.451   1_455  S
O825        C827   1.289       .  A
O826       Zr863   2.419       .  S
O826        C827   1.285       .  A
C827       C1216   1.469       .  S
O828       Zr840   2.447       .  S
O828        C830   1.289       .  A
O829        C830   1.283       .  A
C830       C1060   1.490       .  S
O831       Zr840   2.439   1_455  S
O831        C833   1.287       .  A
O832        C833   1.286       .  A
C833       C1189   1.468       .  S
O834       Zr837   2.451       .  S
O834        C836   1.290       .  A
O835       Zr864   2.418       .  S
O835        C836   1.285       .  A
C836       C1024   1.477       .  S
Zr837       O838   2.434       .  S
Zr837       O839   2.435       .  S
Zr837       O843   2.373   1_655  S
Zr837       O844   2.371       .  S
Zr837       O867   2.376       .  S
Zr837       O869   2.374   1_655  S
O838        H881   0.990       .  S
O839        H880   0.990   1_655  S
O839        H884   0.990       .  S
Zr840       O841   2.436       .  S
Zr840       O842   2.435       .  S
Zr840       O868   2.377   1_655  S
Zr840       O870   2.375       .  S
O841        H882   0.990       .  S
O841        H885   0.990       .  S
O842        H875   0.990   1_655  S
O843       Zr863   2.381       .  S
O844       Zr864   2.382       .  S
O844        H871   0.966       .  S
O845       Zr857   2.438       .  S
O845        C847   1.286       .  A
O846       Zr864   2.419       .  S
O846        C847   1.285       .  A
C847       C1117   1.464       .  S
O848       Zr860   2.443   1_455  S
O848        C850   1.288       .  A
O849        C850   1.286       .  A
C850       C1180   1.479       .  S
O851       Zr860   2.443       .  S
O851        C853   1.289       .  A
O852        C853   1.285       .  A
C853       C1084   1.495       .  S
O854       Zr857   2.428   1_455  S
O854        C856   1.283       .  A
O855       Zr863   2.426       .  S
O855        C856   1.288       .  A
C856       C1144   1.494       .  S
Zr857       O858   2.436       .  S
Zr857       O859   2.434       .  S
Zr857       O865   2.361       .  S
Zr857       O866   2.371   1_655  S
Zr857       O869   2.370   1_655  S
Zr857       O867   2.372       .  S
O858        H878   0.990       .  S
O858        H883   0.990       .  S
O859        H879   0.990       .  S
Zr860       O861   2.433       .  S
Zr860       O862   2.434       .  S
Zr860       O870   2.373       .  S
Zr860       O868   2.369   1_655  S
O861        H877   0.990       .  S
O862        H876   0.990       .  S
O862        H886   0.990       .  S
Zr863       O866   2.377       .  S
Zr863       O869   2.383       .  S
Zr864       O865   2.379       .  S
Zr864       O867   2.380       .  S
O865        H873   0.964       .  S
O868        H872   0.966       .  S
O869        H874   0.966       .  S
O887       Zr899   2.446       .  S
O887        C889   1.288       .  A
O888       Zr925   2.422       .  S
O888        C889   1.285       .  A
C889       C1261   1.468       .  S
O890       Zr902   2.438   1_545  S
O890        C892   1.286       .  A
O891        C892   1.285       .  A
C892       C1072   1.464       .  S
O893       Zr902   2.444       .  S
O893        C895   1.288       .  A
O894        C895   1.287       .  A
C895       C1288   1.492       .  S
O896       Zr899   2.438   1_545  S
O896        C898   1.285       .  A
O897       Zr926   2.426       .  S
O897        C898   1.288       .  A
C898       C1096   1.498       .  S
Zr899       O900   2.434       .  S
Zr899       O901   2.435       .  S
Zr899       O905   2.371       .  S
Zr899       O906   2.371   1_565  S
Zr899       O929   2.373   1_565  S
Zr899       O931   2.368       .  S
O900        H943   0.990       .  S
O901        H942   0.990       .  S
O901        H946   0.990       .  S
Zr902       O903   2.436       .  S
Zr902       O904   2.435       .  S
Zr902       O930   2.371       .  S
Zr902       O932   2.376   1_565  S
O903        H944   0.990   1_565  S
O903        H947   0.990   1_565  S
O904        H937   0.990       .  S
O905       Zr925   2.378       .  S
O906       Zr926   2.383       .  S
O906        H933   0.966       .  S
O907       Zr919   2.443   1_545  S
O907        C909   1.288       .  A
O908       Zr926   2.423       .  S
O908        C909   1.286       .  A
C909       C1000   1.476       .  S
O910       Zr922   2.436       .  S
O910        C912   1.286       .  A
O911        C912   1.287       .  A
C912       C1204   1.470       .  S
O913       Zr922   2.437   1_545  S
O913        C915   1.287       .  A
O914        C915   1.287       .  A
C915        C961   1.474       .  S
O916       Zr919   2.443       .  S
O916        C918   1.288       .  A
O917       Zr925   2.423       .  S
O917        C918   1.286       .  A
C918       C1240   1.469       .  S
Zr919       O920   2.435       .  S
Zr919       O921   2.434       .  S
Zr919       O927   2.368   1_565  S
Zr919       O928   2.373       .  S
Zr919       O931   2.368       .  S
Zr919       O929   2.374   1_565  S
O920        H940   0.990   1_565  S
O920        H945   0.990       .  S
O921        H941   0.990   1_565  S
Zr922       O923   2.433       .  S
Zr922       O924   2.434       .  S
Zr922       O932   2.372   1_565  S
Zr922       O930   2.369       .  S
O923        H939   0.990       .  S
O924        H938   0.990   1_565  S
O924        H948   0.990   1_565  S
Zr925       O928   2.380       .  S
Zr925       O931   2.383       .  S
Zr926       O927   2.383       .  S
Zr926       O929   2.383       .  S
O927        H935   0.965       .  S
O930        H934   0.966       .  S
O931        H936   0.965       .  S
C949        C950   1.407       .  A
C949        C954   1.415       .  A
C950        C951   1.398       .  A
C950        H959   1.084       .  S
C951        C952   1.411       .  A
C951        S955   1.809       .  S
C952        C953   1.401       .  A
C953        C954   1.398       .  A
C953        H960   1.083       .  S
C954        S956   1.804       .  S
S955        H958   1.402       .  S
S956        H957   1.407       .  S
C961        C962   1.403       .  A
C961        C966   1.414       .  A
C962        C963   1.400       .  A
C962        H971   1.083       .  S
C963        C964   1.412       .  A
C963        S967   1.804       .  S
C964        C965   1.400       .  A
C965        C966   1.398       .  A
C965        H972   1.084       .  S
C966        S968   1.804       .  S
S967        H970   1.405       .  S
S968        H969   1.406       .  S
C973        C974   1.406       .  A
C973        C978   1.412       .  A
C974        C975   1.402       .  A
C974        H983   1.084       .  S
C975        C976   1.412       .  A
C975        S979   1.804       .  S
C976        C977   1.402       .  A
C977        C978   1.395       .  A
C977        H984   1.084       .  S
C978        S980   1.802       .  S
S979        H982   1.406       .  S
S980        H981   1.406       .  S
C985        C986   1.401       .  A
C985        C990   1.413       .  A
C986        C987   1.399       .  A
C986        H995   1.084       .  S
C987        C988   1.414       .  A
C987        S991   1.802       .  S
C988        C989   1.403       .  A
C989        C990   1.400       .  A
C989        H996   1.084       .  S
C990        S992   1.804       .  S
S991        H994   1.406       .  S
S992        H993   1.404       .  S
C997        C998   1.402       .  A
C997       C1002   1.411       .  A
C998        C999   1.399       .  A
C998       H1007   1.084       .  S
C999       C1000   1.414       .  A
C999       S1003   1.804       .  S
C1000      C1001   1.405       .  A
C1001      C1002   1.400       .  A
C1001      H1008   1.084       .  S
C1002      S1004   1.805       .  S
S1003      H1006   1.407       .  S
S1004      H1005   1.404       .  S
C1009      C1010   1.399       .  A
C1009      C1014   1.410       .  A
C1010      C1011   1.400       .  A
C1010      H1019   1.084       .  S
C1011      C1012   1.420       .  A
C1011      S1015   1.805       .  S
C1012      C1013   1.407       .  A
C1013      C1014   1.400       .  A
C1013      H1020   1.083       .  S
C1014      S1016   1.804       .  S
S1015      H1018   1.407       .  S
S1016      H1017   1.403       .  S
C1021      C1022   1.402       .  A
C1021      C1026   1.412       .  A
C1022      C1023   1.400       .  A
C1022      H1031   1.084       .  S
C1023      C1024   1.414       .  A
C1023      S1027   1.803       .  S
C1024      C1025   1.404       .  A
C1025      C1026   1.400       .  A
C1025      H1032   1.084       .  S
C1026      S1028   1.805       .  S
S1027      H1030   1.406       .  S
S1028      H1029   1.404       .  S
C1033      C1034   1.400       .  A
C1033      C1038   1.408       .  A
C1034      C1035   1.400       .  A
C1034      H1043   1.084       .  S
C1035      C1036   1.421       .  A
C1035      S1039   1.803       .  S
C1036      C1037   1.410       .  A
C1037      C1038   1.398       .  A
C1037      H1044   1.084       .  S
C1038      S1040   1.805       .  S
S1039      H1042   1.402       .  S
S1040      H1041   1.406       .  S
C1045      C1046   1.402       .  A
C1045      C1050   1.413       .  A
C1046      C1047   1.396       .  A
C1046      H1055   1.084       .  S
C1047      C1048   1.413       .  A
C1047      S1051   1.805       .  S
C1048      C1049   1.404       .  A
C1049      C1050   1.402       .  A
C1049      H1056   1.084       .  S
C1050      S1052   1.804       .  S
S1051      H1054   1.407       .  S
S1052      H1053   1.406       .  S
C1057      C1058   1.398       .  A
C1057      C1062   1.410       .  A
C1058      C1059   1.396       .  A
C1058      H1067   1.084       .  S
C1059      C1060   1.420       .  A
C1059      S1063   1.797       .  S
C1060      C1061   1.409       .  A
C1061      C1062   1.400       .  A
C1061      H1068   1.084       .  S
C1062      S1064   1.804       .  S
S1063      H1066   1.408       .  S
S1064      H1065   1.406       .  S
C1069      C1070   1.408       .  A
C1069      C1074   1.417       .  A
C1070      C1071   1.398       .  A
C1070      H1079   1.084       .  S
C1071      C1072   1.410       .  A
C1071      S1075   1.808       .  S
C1072      C1073   1.400       .  A
C1073      C1074   1.399       .  A
C1073      H1080   1.084       .  S
C1074      S1076   1.804       .  S
S1075      H1078   1.403       .  S
S1076      H1077   1.407       .  S
C1081      C1082   1.403       .  A
C1081      C1086   1.413       .  A
C1082      C1083   1.399       .  A
C1082      H1091   1.084       .  S
C1083      C1084   1.421       .  A
C1084      C1085   1.410       .  A
C1085      C1086   1.397       .  A
C1085      H1092   1.083       .  S
C1086      S1088   1.805       .  S
S1087      H1090   1.405   1_554  S
S1088      H1089   1.407       .  S
C1093      C1094   1.401       .  A
C1093      C1098   1.414       .  A
C1094      C1095   1.397       .  A
C1094      H1103   1.084       .  S
C1095      C1096   1.423       .  A
C1095      S1099   1.801       .  S
C1096      C1097   1.410       .  A
C1097      C1098   1.400       .  A
C1097      H1104   1.083       .  S
C1098      S1100   1.805       .  S
S1099      H1102   1.407       .  S
S1100      H1101   1.407       .  S
C1105      C1106   1.402       .  A
C1105      C1110   1.413       .  A
C1106      C1107   1.396       .  A
C1106      H1115   1.084       .  S
C1107      C1108   1.415       .  A
C1107      S1111   1.804       .  S
C1108      C1109   1.405       .  A
C1109      C1110   1.400       .  A
C1109      H1116   1.084       .  S
C1110      S1112   1.804       .  S
S1111      H1114   1.407       .  S
S1112      H1113   1.406       .  S
C1117      C1118   1.398       .  A
C1117      C1122   1.412       .  A
C1118      C1119   1.397       .  A
C1118      H1127   1.084       .  S
C1119      C1120   1.416       .  A
C1119      S1123   1.805       .  S
C1120      C1121   1.403       .  A
C1121      C1122   1.399       .  A
C1121      H1128   1.084       .  S
C1122      S1124   1.805       .  S
S1123      H1126   1.406       .  S
S1124      H1125   1.403       .  S
C1129      C1130   1.407       .  A
C1129      C1134   1.420       .  A
C1130      C1131   1.396       .  A
C1130      H1139   1.083       .  S
C1131      C1132   1.415       .  A
C1131      S1135   1.799       .  S
C1132      C1133   1.405       .  A
C1133      C1134   1.398       .  A
C1133      H1140   1.084       .  S
C1134      S1136   1.801       .  S
S1135      H1138   1.406       .  S
S1136      H1137   1.408       .  S
C1141      C1142   1.400       .  A
C1141      C1146   1.411       .  A
C1142      C1143   1.398       .  A
C1142      H1151   1.084       .  S
C1143      C1144   1.425       .  A
C1143      S1147   1.801       .  S
C1144      C1145   1.408       .  A
C1145      C1146   1.396       .  A
C1145      H1152   1.083       .  S
C1146      S1148   1.801       .  S
S1147      H1150   1.408       .  S
S1148      H1149   1.406       .  S
C1153      C1154   1.405       .  A
C1153      C1158   1.416       .  A
C1154      C1155   1.400       .  A
C1154      H1163   1.084       .  S
C1155      C1156   1.415       .  A
C1155      S1159   1.805       .  S
C1156      C1157   1.403       .  A
C1157      C1158   1.398       .  A
C1157      H1164   1.084       .  S
C1158      S1160   1.803       .  S
S1159      H1162   1.406       .  S
S1160      H1161   1.406       .  S
C1165      C1166   1.400       .  A
C1165      C1170   1.410       .  A
C1166      C1167   1.399       .  A
C1166      H1175   1.084       .  S
C1167      C1168   1.417       .  A
C1167      S1171   1.803       .  S
C1168      C1169   1.407       .  A
C1169      C1170   1.400       .  A
C1169      H1176   1.084       .  S
C1170      S1172   1.805       .  S
S1171      H1174   1.407       .  S
S1172      H1173   1.404       .  S
C1177      C1178   1.402       .  A
C1177      C1182   1.411       .  A
C1178      C1179   1.401       .  A
C1178      H1187   1.084       .  S
C1179      C1180   1.415       .  A
C1179      S1183   1.803       .  S
C1180      C1181   1.403       .  A
C1181      C1182   1.397       .  A
C1181      H1188   1.082       .  S
C1182      S1184   1.805       .  S
S1183      H1186   1.407       .  S
S1184      H1185   1.404       .  S
C1189      C1190   1.402       .  A
C1189      C1194   1.410       .  A
C1190      C1191   1.400       .  A
C1190      H1199   1.084       .  S
C1191      C1192   1.414       .  A
C1191      S1195   1.803       .  S
C1192      C1193   1.404       .  A
C1193      C1194   1.397       .  A
C1193      H1200   1.084       .  S
C1194      S1196   1.802       .  S
S1195      H1198   1.406       .  S
S1196      H1197   1.405       .  S
C1201      C1202   1.405       .  A
C1201      C1206   1.412       .  A
C1202      C1203   1.400       .  A
C1202      H1211   1.084       .  S
C1203      C1204   1.411       .  A
C1203      S1207   1.804       .  S
C1204      C1205   1.402       .  A
C1205      C1206   1.398       .  A
C1205      H1212   1.084       .  S
C1206      S1208   1.804       .  S
S1207      H1210   1.405       .  S
S1208      H1209   1.406       .  S
C1213      C1214   1.406       .  A
C1213      C1218   1.417       .  A
C1214      C1215   1.400       .  A
C1214      H1223   1.084       .  S
C1215      C1216   1.410       .  A
C1215      S1219   1.804       .  S
C1216      C1217   1.400       .  A
C1217      C1218   1.401       .  A
C1217      H1224   1.084       .  S
C1218      S1220   1.804       .  S
S1219      H1222   1.404       .  S
S1220      H1221   1.406       .  S
C1225      C1226   1.404       .  A
C1225      C1230   1.413       .  A
C1226      C1227   1.403       .  A
C1226      H1235   1.084       .  S
C1227      C1228   1.413       .  A
C1227      S1231   1.804       .  S
C1228      C1229   1.401       .  A
C1229      C1230   1.395       .  A
C1229      H1236   1.084       .  S
C1230      S1232   1.805       .  S
S1231      H1234   1.406       .  S
S1232      H1233   1.407       .  S
C1237      C1238   1.408       .  A
C1237      C1242   1.422       .  A
C1238      C1239   1.397       .  A
C1238      H1247   1.083       .  S
C1239      C1240   1.408       .  A
C1239      S1243   1.802       .  S
C1240      C1241   1.399       .  A
C1241      C1242   1.404       .  A
C1241      H1248   1.082       .  S
C1242      S1244   1.810       .  S
S1243      H1246   1.405       .  S
S1244      H1245   1.407       .  S
C1249      C1250   1.399       .  A
C1249      C1254   1.411       .  A
C1250      C1251   1.400       .  A
C1250      H1259   1.084       .  S
C1251      C1252   1.419       .  A
C1251      S1255   1.802       .  S
C1252      C1253   1.406       .  A
C1253      C1254   1.400       .  A
C1253      H1260   1.084       .  S
C1254      S1256   1.805       .  S
S1255      H1258   1.407       .  S
S1256      H1257   1.404       .  S
C1261      C1262   1.400       .  A
C1261      C1266   1.408       .  A
C1262      C1263   1.401       .  A
C1262      H1271   1.084       .  S
C1263      C1264   1.421       .  A
C1263      S1267   1.803       .  S
C1264      C1265   1.409       .  A
C1265      C1266   1.398       .  A
C1265      H1272   1.083       .  S
C1266      S1268   1.804       .  S
S1267      H1270   1.406       .  S
S1268      H1269   1.404       .  S
C1273      C1274   1.402       .  A
C1273      C1278   1.414       .  A
C1274      C1275   1.397       .  A
C1274      H1283   1.084       .  S
C1275      C1276   1.422       .  A
C1275      S1279   1.800       .  S
C1276      C1277   1.410       .  A
C1277      C1278   1.400       .  A
C1277      H1284   1.083       .  S
C1278      S1280   1.802       .  S
S1279      H1282   1.407       .  S
S1280      H1281   1.406       .  S
C1285      C1286   1.400       .  A
C1285      C1290   1.410       .  A
C1286      C1287   1.400       .  A
C1286      H1295   1.084       .  S
C1287      C1288   1.421       .  A
C1287      S1291   1.801       .  S
C1288      C1289   1.409       .  A
C1289      C1290   1.396       .  A
C1289      H1296   1.083       .  S
C1290      S1292   1.804       .  S
S1291      H1294   1.408       .  S
S1292      H1293   1.406       .  S
C1297      C1298   1.403       .  A
C1297      C1302   1.413       .  A
C1298      C1299   1.400       .  A
C1298      H1307   1.084       .  S
C1299      C1300   1.413       .  A
C1299      S1303   1.804       .  S
C1300      C1301   1.402       .  A
C1301      C1302   1.397       .  A
C1301      H1308   1.084       .  S
C1302      S1304   1.805       .  S
S1303      H1306   1.406       .  S
S1304      H1305   1.406       .  S
