geometry optimzed in LAMMPS
_audit_creation_date              2020-11-30 
_audit_creation_method            'lammps2cif' 
_symmetry_space_group_name_H-M    'P1' 
_symmetry_Int_Tables_number       1 
_symmetry_cell_setting            triclinic 
loop_ 
_symmetry_equiv_pos_as_xyz 
  x,y,z 
_cell_length_a                    41.306631374416654 
_cell_length_b                    41.29097384106153 
_cell_length_c                    42.98880301944901 
_cell_angle_alpha                 90.17311624627423 
_cell_angle_beta                  89.88490248587325 
_cell_angle_gamma                 120.07808003480018 
loop_ 
_atom_site_label 
_atom_site_type_symbol 
_atom_site_fract_x 
_atom_site_fract_y 
_atom_site_fract_z 
_atom_site_charge 
C1          C  0.49670009  0.71878112  0.10096867     0.03430
C2          C  0.50246874  0.72178478  0.13317777    -0.12720
C3          C  0.50338123  0.75158150  0.14986735     0.00930
C4          C  0.49897440  0.77865640  0.13368619    -0.11250
C5          C  0.49354233  0.77605285  0.10131382     0.03420
C6          C  0.49235930  0.74591556  0.08513418    -0.10670
H7          H  0.50554964  0.70049924  0.14530136     0.09020
H8          H  0.49922140  0.80150626  0.14631497     0.06550
H9          H  0.48771843  0.74334985  0.06022433     0.06390
C10         C  0.49860444  0.72010526  0.33437005     0.03430
C11         C  0.50548510  0.72371331  0.30211286    -0.12720
C12         C  0.50369738  0.75157153  0.28491733     0.00930
C13         C  0.49939442  0.77893414  0.30069414    -0.11250
C14         C  0.49518127  0.77753318  0.33315424     0.03420
C15         C  0.49284613  0.74704827  0.34956584    -0.10670
H16         H  0.51111731  0.70403850  0.28996928     0.09020
H17         H  0.49855200  0.80093656  0.28767125     0.06550
H18         H  0.48643479  0.74450179  0.37413942     0.06390
C19         C  0.22203964  0.78341693  0.33255141     0.03430
C20         C  0.21709925  0.78729136  0.30062664    -0.12720
C21         C  0.18561625  0.75990367  0.28460318     0.00930
C22         C  0.15749795  0.72958371  0.30123040    -0.11250
C23         C  0.16228690  0.72434853  0.33278947     0.03420
C24         C  0.19530287  0.75081716  0.34784068    -0.10670
H25         H  0.23827830  0.81109993  0.28789770     0.09020
H26         H  0.13215336  0.70977310  0.28922817     0.06550
H27         H  0.20019880  0.74577699  0.37158494     0.06390
C28         C  0.21999831  0.78470207  0.10044067     0.03430
C29         C  0.21764251  0.78611610  0.13309876    -0.12720
C30         C  0.18744546  0.75715266  0.14941620     0.00930
C31         C  0.15893654  0.72734458  0.13255655    -0.11250
C32         C  0.16150032  0.72524309  0.10024992     0.03420
C33         C  0.19205788  0.75359798  0.08434825    -0.10670
H34         H  0.23955491  0.80949022  0.14585068     0.09020
H35         H  0.13480580  0.70544682  0.14455944     0.06550
H36         H  0.19423926  0.75106048  0.05945004     0.06390
C37         C  0.15388617  0.43862299  0.10331899     0.03430
C38         C  0.18300805  0.43725178  0.08698202    -0.12720
C39         C  0.21061707  0.43308750  0.10268949     0.00930
C40         C  0.20655983  0.42595010  0.13469385    -0.11250
C41         C  0.17854331  0.42777468  0.15155303     0.03420
C42         C  0.15339487  0.43561274  0.13604461    -0.10670
H43         H  0.18500315  0.44032290  0.06200366     0.09020
H44         H  0.22614229  0.42031269  0.14689274     0.06550
H45         H  0.13457018  0.44069522  0.14993986     0.06390
C46         C  0.15860100  0.44611131  0.33230337     0.03430
C47         C  0.15441640  0.43587069  0.30079079    -0.12720
C48         C  0.18088262  0.42941803  0.28595914     0.00930
C49         C  0.20927617  0.42913959  0.30357390    -0.11250
C50         C  0.21428506  0.43965213  0.33514118     0.03420
C51         C  0.18954756  0.44962639  0.34879075    -0.10670
H52         H  0.13117304  0.43381496  0.28754711     0.09020
H53         H  0.22813339  0.42179670  0.29217598     0.06550
H54         H  0.19421559  0.46037016  0.37232615     0.06390
C55         C  0.76292944  0.24304323  0.33345788     0.03430
C56         C  0.76380506  0.24087290  0.30091784    -0.12720
C57         C  0.73623291  0.20927733  0.28503676     0.00930
C58         C  0.70794868  0.17964062  0.30218363    -0.11250
C59         C  0.70664750  0.18195822  0.33463299     0.03420
C60         C  0.73443329  0.21340382  0.35025313    -0.10670
H61         H  0.78560530  0.26407902  0.28796578     0.09020
H62         H  0.68656981  0.15496746  0.29031499     0.06550
H63         H  0.73325117  0.21529828  0.37533529     0.06390
C64         C  0.76485045  0.24164424  0.10125775     0.03430
C65         C  0.76685012  0.24005613  0.13371527    -0.12720
C66         C  0.73957307  0.20888487  0.15013326     0.00930
C67         C  0.70994695  0.17965481  0.13366133    -0.11250
C68         C  0.70661536  0.18186319  0.10136181     0.03420
C69         C  0.73474694  0.21261524  0.08517981    -0.10670
H70         H  0.78920921  0.26342136  0.14613784     0.09020
H71         H  0.68885621  0.15547322  0.14617772     0.06550
H72         H  0.73261730  0.21465944  0.06022549     0.06390
C73         C  0.70092967  0.53160989  0.10115053     0.03430
C74         C  0.70350779  0.53666327  0.13353749    -0.12720
C75         C  0.73375967  0.53851328  0.14983756     0.00930
C76         C  0.76127515  0.53491448  0.13365652    -0.11250
C77         C  0.75890307  0.52978681  0.10135840     0.03420
C78         C  0.72892386  0.52854355  0.08512528    -0.10670
H79         H  0.68153212  0.53818153  0.14611617     0.09020
H80         H  0.78431623  0.53560291  0.14628810     0.06550
H81         H  0.72667881  0.52382536  0.06021522     0.06390
C82         C  0.69666697  0.52241648  0.33087637     0.03430
C83         C  0.70307757  0.53409946  0.29970921    -0.12720
C84         C  0.73464766  0.53832926  0.28400236     0.00930
C85         C  0.76247873  0.53559593  0.30040678    -0.11250
C86         C  0.75696226  0.52401184  0.33162954     0.03420
C87         C  0.72327976  0.51641285  0.34621203    -0.10670
H88         H  0.68305565  0.53871457  0.28716678     0.09020
H89         H  0.78796293  0.54191756  0.28832939     0.06550
H90         H  0.71755397  0.50556838  0.36969444     0.06390
C91         C  0.41583329  0.17661330  0.33301752     0.03430
C92         C  0.41716707  0.20666523  0.34936761    -0.12720
C93         C  0.41016242  0.23268210  0.33425543     0.00930
C94         C  0.40347794  0.22913040  0.30196688    -0.11250
C95         C  0.40362200  0.20000703  0.28509730     0.03420
C96         C  0.40931100  0.17359332  0.30090145    -0.10670
H97         H  0.42405137  0.20988081  0.37389141     0.09020
H98         H  0.39935712  0.24970298  0.28976523     0.06550
H99         H  0.40971305  0.15119604  0.28800413     0.06450
C100        C  0.41187573  0.17557792  0.10077422     0.03430
C101        C  0.40790479  0.17310986  0.13325028    -0.12720
C102        C  0.40317189  0.19950708  0.15019315     0.00930
C103        C  0.40120930  0.22805436  0.13427866    -0.11250
C104        C  0.40665239  0.23217019  0.10184973     0.03420
C105        C  0.41222359  0.20580049  0.08540191    -0.10670
H106        H  0.40963674  0.15120730  0.14560461     0.09020
H107        H  0.39705675  0.24806916  0.14748371     0.06550
H108        H  0.41767271  0.20914989  0.06066941     0.06390
C109        C  0.48064677  0.58683392  0.39689744     0.42760
N110        N  0.49123936  0.55360181  0.42925048     0.01650
C111        C  0.40559027  0.35991742  0.43235652    -0.06230
H112        H  0.31479451  0.41007368  0.44534060     0.07140
C113        C  0.38117297  0.47402657  0.04575732    -0.06580
Co114      Co  0.45145475  0.47270062  0.41130307     0.74180
N115        N  0.37378956  0.43597564  0.43628323    -0.25760
Co116      Co  0.39506559  0.41755540  0.47152825     0.74070
C117        C  0.34200082  0.45189355  0.03569262     0.42860
N118        N  0.47278598  0.53776476  0.02132466     0.01260
N119        N  0.37688988  0.44098865  0.00531622     0.01370
N120        N  0.44206168  0.39677155  0.39335116    -0.46610
H121        H  0.43909256  0.53373497  0.36933612     0.07130
N122        N  0.39521611  0.45716821  0.41344649     0.01650
N123        N  0.41756586  0.40041951  0.00691961     0.01390
C124        C  0.42666723  0.36682218  0.04014147     0.43000
N125        N  0.49479642  0.55874067  0.99858281    -0.25210
C126        C  0.52671638  0.47945230  0.38995578    -0.06130
N127        N  0.50012376  0.58840666  0.42266664    -0.46320
N128        N  0.40794628  0.36551995  0.01393557    -0.46540
C129        C  0.56588618  0.50130220  0.39968906     0.42770
N130        N  0.43570028  0.41633964  0.41443137     0.01640
N131        N  0.53508657  0.51829092  0.99948791    -0.25240
N132        N  0.46725214  0.52909665  0.40928254    -0.25730
N133        N  0.51418766  0.49737682  0.02268645     0.01280
H134        H  0.59379903  0.54519121  0.48953920     0.07170
H135        H  0.46771040  0.41989744  0.06804460     0.07210
N136        N  0.41423804  0.39540517  0.43736942    -0.25780
N137        N  0.40051400  0.46529530  0.02564534    -0.25390
N138        N  0.53177408  0.51278675  0.43047121     0.01650
C139        C  0.34037133  0.44690312  0.40184157     0.43040
C140        C  0.50320650  0.59422436  0.00328683    -0.06640
N141        N  0.44139720  0.42487336  0.02703769    -0.25390
H142        H  0.39309595  0.49256179  0.06549303     0.07190
N143        N  0.37636050  0.46427680  0.39232254    -0.46610
H144        H  0.52167084  0.61798746  0.48906450     0.07180
C145        C  0.56990756  0.50933096  0.03370379     0.42880
C146        C  0.45832790  0.54719902  0.38831246    -0.06140
Co147      Co  0.51381231  0.53645814  0.46440066     0.73820
N148        N  0.46524392  0.55718215  0.04173429    -0.46330
C149        C  0.42409019  0.36081400  0.40297569     0.43140
N150        N  0.56674256  0.52147913  0.42481023    -0.46320
Co151      Co  0.45733330  0.48140994  0.02484826     0.73890
C152        C  0.44932533  0.40653347  0.04858404    -0.06650
C153        C  0.33862874  0.42807389  0.43107303    -0.06210
N154        N  0.50788691  0.48848320  0.41029622    -0.25740
N155        N  0.34178349  0.43203334  0.01061163    -0.46500
H156        H  0.38701519  0.33639423  0.44673023     0.07150
C157        C  0.57050996  0.52714752  0.00430313    -0.06620
Cl158      Cl  0.45444216  0.47699523  0.46807360    -0.49620
C159        C  0.48317525  0.59290016  0.03162511     0.42910
H160        H  0.51446919  0.46087557  0.37028616     0.07120
N161        N  0.53402501  0.49157857  0.04389706    -0.46330
C162        C  0.04332243  0.59781884  0.03637151     0.42760
N163        N  0.99813260  0.56337147  0.00573587     0.01650
C164        C  0.89248343  0.36995052  0.00379102    -0.06230
H165        H  0.03619594  0.42519337  0.48892486     0.07140
C166        C  0.02711071  0.48397289  0.38879298    -0.06580
Co167      Co  0.95798232  0.48305647  0.02502496     0.74180
N168        N  0.00059815  0.44818646  0.99925845    -0.25760
Co169      Co  0.95986232  0.42821989  0.46466087     0.74070
C170        C  0.04544777  0.46320435  0.39880243     0.42860
N171        N  0.99867638  0.54651725  0.41370901     0.01260
N172        N  0.00038090  0.45186784  0.43009875     0.01370
N173        N  0.89113389  0.40642589  0.04259907    -0.46610
H174        H  0.03271946  0.54723604  0.06638171     0.07130
N175        N  0.99955781  0.46840338  0.02266522     0.01650
N176        N  0.91905939  0.40954168  0.43018045     0.01390
C177        C  0.87493721  0.37420993  0.39883243     0.43000
N178        N  0.99800430  0.56726876  0.43674049    -0.25210
C179        C  0.88960045  0.49057844  0.04697579    -0.06130
N180        N  0.02442642  0.59842298  0.01105256    -0.46320
N181        N  0.89379399  0.37423896  0.42442445    -0.46540
C182        C  0.87270489  0.51272679  0.03699511     0.42770
N183        N  0.91775422  0.42631480  0.02207327     0.01640
N184        N  0.91696793  0.52584773  0.43686471    -0.25240
N185        N  0.99832514  0.53974483  0.02624178    -0.25730
N186        N  0.91653884  0.50437768  0.41394562     0.01280
H187        H  0.88473337  0.55200810  0.44718771     0.07170
H188        H  0.88470701  0.42460852  0.36886042     0.07210
N189        N  0.91913709  0.40559227  0.99924150    -0.25780
N190        N  0.99960578  0.47505951  0.40950139    -0.25390
N191        N  0.91693565  0.52207647  0.00559264     0.01650
C192        C  0.04624406  0.46103490  0.03273590     0.43040
C193        C  0.02532853  0.60261604  0.43255869    -0.06640
N194        N  0.91826614  0.43291086  0.40973064    -0.25390
H195        H  0.03252957  0.50174616  0.36876802     0.07190
N196        N  0.02595771  0.47605295  0.04361995    -0.46610
H197        H  0.02967790  0.62548275  0.44744413     0.07180
C198        C  0.87059996  0.51345443  0.40412039     0.42880
C199        C  0.02621974  0.55891155  0.04648070    -0.06140
Co200      Co  0.95754104  0.54522521  0.47125020     0.73820
N201        N  0.02582846  0.56612399  0.39353540    -0.46330
C202        C  0.87375455  0.37061151  0.03238598     0.43140
N203        N  0.89119469  0.53139206  0.01124361    -0.46320
Co204      Co  0.95818770  0.48977938  0.41096417     0.73890
C205        C  0.89101284  0.41321074  0.38905914    -0.06650
C206        C  0.02925661  0.44212955  0.00358533    -0.06210
N207        N  0.91685693  0.49842249  0.02619326    -0.25740
N208        N  0.02705964  0.44384794  0.42441911    -0.46500
H209        H  0.88750331  0.34645782  0.48926811     0.07150
C210        C  0.88938140  0.53339750  0.43262363    -0.06620
Cl211      Cl  0.95831886  0.48649824  0.46798555    -0.49620
C212        C  0.04433817  0.60193846  0.40396027     0.42910
H213        H  0.88387038  0.47327180  0.06737588     0.07120
N214        N  0.88943803  0.49653979  0.39367761    -0.46330
C215        C  0.48508977  0.89401578  0.03518663     0.42760
N216        N  0.49827896  0.94007899  0.00462009     0.01650
C217        C  0.41828576  0.05260839  0.00222370    -0.06230
H218        H  0.32431813  0.91056359  0.48781656     0.07140
C219        C  0.39456275  0.91701739  0.38685283    -0.06580
Co220      Co  0.46065385  0.98279299  0.02375908     0.74180
N221        N  0.38320544  0.94310449  0.99771572    -0.25760
Co222      Co  0.40593866  0.98394044  0.46310285     0.74070
C223        C  0.35502887  0.89970554  0.39529682     0.42860
N224        N  0.48278519  0.94166902  0.41236470     0.01260
N225        N  0.38817591  0.94364604  0.42791268     0.01370
N226        N  0.45339522  0.05094682  0.04189153    -0.46610
H227        H  0.44684612  0.90759709  0.06510000     0.07130
N228        N  0.40396258  0.94284647  0.02089275     0.01650
N229        N  0.43013328  0.02507554  0.42912324     0.01390
C230        C  0.44297947  0.07129509  0.39927522     0.43000
N231        N  0.50304966  0.94039668  0.43552541    -0.25210
C232        C  0.53704733  0.05026122  0.04563250    -0.06130
N233        N  0.50528222  0.91263758  0.00994547    -0.46320
N234        N  0.42178337  0.05155793  0.42363166    -0.46540
C235        C  0.57623511  0.06690667  0.03581892     0.42770
N236        N  0.44616529  0.02444582  0.02104035     0.01640
N237        N  0.54624240  0.02166420  0.43619753    -0.25240
N238        N  0.47489216  0.94101209  0.02502317    -0.25730
N239        N  0.52591353  0.02338177  0.41333525     0.01280
H240        H  0.60517221  0.05252947  0.44645179     0.07170
H241        H  0.48298318  0.06043410  0.36950359     0.07210
N242        N  0.42527659  0.02455817  0.99787333    -0.25780
N243        N  0.41261050  0.94407128  0.40792009    -0.25390
N244        N  0.54124954  0.02161256  0.00505777     0.01650
C245        C  0.34844987  0.89860729  0.03203326     0.43040
C246        C  0.50841807  0.91127751  0.43102484    -0.06640
N247        N  0.45470138  0.02551290  0.40918196    -0.25390
H248        H  0.40804383  0.91106248  0.36798478     0.07190
N249        N  0.38431291  0.91692368  0.04190618    -0.46610
H250        H  0.52468840  0.90356938  0.44570604     0.07180
C251        C  0.58199054  0.06623548  0.40283839     0.42880
C252        C  0.46493492  0.91298664  0.04528253    -0.06140
Co253      Co  0.52282097  0.98087654  0.47043646     0.73820
N254        N  0.47382181  0.91464699  0.39168597    -0.46330
C255        C  0.43740883  0.07028898  0.03105514     0.43140
N256        N  0.57641225  0.04744410  0.01060015    -0.46320
Co257      Co  0.46915573  0.98381505  0.41007641     0.73890
C258        C  0.46449806  0.05390519  0.38925477    -0.06650
C259        C  0.34771493  0.91608792  0.00257046    -0.06210
N260        N  0.51763974  0.02252103  0.02526095    -0.25740
N261        N  0.35336141  0.91765711  0.42115853    -0.46500
H262        H  0.40088243  0.05892547  0.48761878     0.07150
C263        C  0.58205752  0.04782786  0.43171461    -0.06620
Cl264      Cl  0.46463462  0.98287505  0.46684986    -0.49620
C265        C  0.48852910  0.89411710  0.40227295     0.42910
H266        H  0.52511173  0.05689441  0.06533416     0.07120
N267        N  0.54622530  0.04972012  0.39278280    -0.46330
C268        C  0.41014161  0.26602005  0.08595811     0.00140
C269        C  0.42959661  0.30081226  0.10116575    -0.11730
C270        C  0.43400985  0.33358957  0.08767678     0.02380
C271        C  0.42120642  0.33282838  0.05698711     0.00060
C272        C  0.40132696  0.29793782  0.04186596    -0.11670
C273        C  0.39489534  0.26474518  0.05622155     0.02270
H274        H  0.44132605  0.30257148  0.12407230     0.15250
H275        H  0.39007938  0.29633834  0.01877022     0.15250
C276        C  0.37101289  0.22981235  0.04041735     0.36900
C277        C  0.44931954  0.36637553  0.10726087     0.36800
N278        N  0.35179715  0.20187798  0.02769872    -0.43440
N279        N  0.46092731  0.39185433  0.12390863    -0.43440
C280        C  0.43212134  0.09744718  0.04930300     0.00140
C281        C  0.40382196  0.08417195  0.07178986    -0.11730
C282        C  0.39624316  0.10887265  0.08838629     0.02380
C283        C  0.41807494  0.14795306  0.08313428     0.00060
C284        C  0.44654356  0.16098732  0.06049796    -0.11670
C285        C  0.45326778  0.13606174  0.04333100     0.02270
H286        H  0.38692384  0.05427716  0.07578601     0.15250
H287        H  0.46372793  0.19076433  0.05621821     0.15250
C288        C  0.48178978  0.15062499  0.01953627     0.36900
C289        C  0.36475871  0.09304916  0.10946346     0.36800
N290        N  0.50450043  0.16222025  0.50034176    -0.43440
N291        N  0.33954434  0.08026034  0.12636540    -0.43440
C292        C  0.40203976  0.19921754  0.25058087     0.00140
C293        C  0.43118174  0.19860511  0.23426695    -0.11730
C294        C  0.43196973  0.19862790  0.20178707     0.02380
C295        C  0.40283922  0.19883282  0.18476323     0.00060
C296        C  0.37364313  0.19955478  0.20103184    -0.11670
C297        C  0.37300043  0.19972468  0.23368418     0.02270
H298        H  0.45397320  0.19892909  0.24703940     0.15250
H299        H  0.35115216  0.19970401  0.18817079     0.15250
C300        C  0.34183768  0.19942285  0.24922671     0.36900
C301        C  0.46393597  0.20013521  0.18661910     0.36800
N302        N  0.31686963  0.19924106  0.26165893    -0.43440
N303        N  0.48952443  0.20127580  0.17449106    -0.43440
C304        C  0.41237345  0.26497185  0.35178496     0.00140
C305        C  0.43243790  0.30096070  0.33884470    -0.11730
C306        C  0.43628466  0.33239755  0.35467747     0.02380
C307        C  0.42055891  0.32843241  0.38473462     0.00060
C308        C  0.40020528  0.29233788  0.39750816    -0.11670
C309        C  0.39555065  0.26082210  0.38130360     0.02270
H310        H  0.44559903  0.30470147  0.31625741     0.15250
H311        H  0.38738779  0.28834283  0.42023365     0.15250
C312        C  0.37221425  0.22452541  0.39520226     0.36900
C313        C  0.45606631  0.36802673  0.33898229     0.36800
N314        N  0.35359847  0.19551402  0.40646825    -0.43440
N315        N  0.47170020  0.39639407  0.32610313    -0.43440
C316        C  0.42269566  0.14911061  0.34943517     0.00140
C317        C  0.45601071  0.16197610  0.36638230    -0.11730
C318        C  0.46337368  0.13691371  0.38245565     0.02380
C319        C  0.43702204  0.09840473  0.38185543     0.00060
C320        C  0.40366167  0.08545673  0.36516820    -0.11670
C321        C  0.39636202  0.11039342  0.34886263     0.02270
H322        H  0.47633255  0.19166626  0.36698607     0.15250
H323        H  0.38322431  0.05577863  0.36498236     0.15250
C324        C  0.36116390  0.09571442  0.33263118     0.36900
C325        C  0.49755595  0.15132350  0.40012836     0.36800
N326        N  0.33299360  0.08394641  0.31957347    -0.43440
N327        N  0.52486910  0.16282180  0.41440792    -0.43440
C328        C  0.66253795  0.51649900  0.34790060     0.00140
C329        C  0.66638588  0.52910036  0.37882916    -0.11730
C330        C  0.63542988  0.52348305  0.39639312     0.02380
C331        C  0.59943655  0.50598950  0.38275831     0.00060
C332        C  0.59549469  0.49324057  0.35187907    -0.11670
C333        C  0.62631401  0.49786251  0.33458736     0.02270
H334        H  0.69385895  0.54338464  0.38952358     0.15250
H335        H  0.56820446  0.47948286  0.34096485     0.15250
C336        C  0.61936169  0.48185942  0.30372053     0.36900
C337        C  0.64167004  0.53474818  0.42865782     0.36800
N338        N  0.61366896  0.46919406  0.27892209    -0.43440
N339        N  0.64727509  0.54361679  0.45453589    -0.43440
C340        C  0.84037486  0.51499904  0.38654019     0.00140
C341        C  0.83504892  0.50407286  0.35515184    -0.11730
C342        C  0.80804517  0.50603883  0.33685467     0.02380
C343        C  0.78608591  0.52042952  0.34964670     0.00060
C344        C  0.79139300  0.53109185  0.38118758    -0.11670
C345        C  0.81711576  0.52743234  0.39979769     0.02270
H346        H  0.85205646  0.49372065  0.34469647     0.15250
H347        H  0.77509884  0.54222850  0.39168398     0.15250
C348        C  0.81693175  0.53464912  0.43264199     0.36900
C349        C  0.80329260  0.49187039  0.30547884     0.36800
N350        N  0.81587631  0.54010465  0.45894960    -0.43440
N351        N  0.80047495  0.48066620  0.28034113    -0.43440
C352        C  0.60299438  0.51448968  0.05155261     0.00140
C353        C  0.63861233  0.54434278  0.04359156    -0.11730
C354        C  0.67072368  0.55057012  0.05955048     0.02380
C355        C  0.66764805  0.52689953  0.08427394     0.00060
C356        C  0.63225494  0.49727879  0.09251160    -0.11670
C357        C  0.60011859  0.49068335  0.07628284     0.02270
H358        H  0.64164360  0.56333271  0.02502445     0.15250
H359        H  0.62986812  0.47863462  0.11123677     0.15250
C360        C  0.56505118  0.45828840  0.08471408     0.36900
C361        C  0.70642246  0.58194352  0.05059358     0.36800
N362        N  0.53718295  0.43200659  0.09153389    -0.43440
N363        N  0.73505743  0.60702419  0.04341856    -0.43440
C364        C  0.73563446  0.53947523  0.24965901     0.00140
C365        C  0.73800010  0.57022362  0.23374413    -0.11730
C366        C  0.73739807  0.57063319  0.20109494     0.02380
C367        C  0.73471625  0.54002922  0.18415974     0.00060
C368        C  0.73210451  0.50932951  0.20016016    -0.11670
C369        C  0.73189537  0.50853457  0.23257983     0.02270
H370        H  0.74018016  0.59373981  0.24681830     0.15250
H371        H  0.72911752  0.48538561  0.18720073     0.15250
C372        C  0.72519635  0.47456633  0.24777605     0.36900
C373        C  0.74006696  0.60277591  0.18546293     0.36800
N374        N  0.71925962  0.44713954  0.25990080    -0.43440
N375        N  0.74212356  0.62847346  0.17286439    -0.43440
C376        C  0.78737173  0.52475046  0.08467278     0.00140
C377        C  0.81028690  0.55158650  0.06280916    -0.11730
C378        C  0.83840335  0.54853131  0.04717332     0.02380
C379        C  0.84357245  0.51763152  0.05307395     0.00060
C380        C  0.82040182  0.49081123  0.07501454    -0.11670
C381        C  0.79240330  0.49402218  0.09066816     0.02270
H382        H  0.80664085  0.57542253  0.05841914     0.15250
H383        H  0.82387819  0.46708618  0.07986883     0.15250
C384        C  0.76845868  0.46488610  0.11211813     0.36900
C385        C  0.86231005  0.57847292  0.02633049     0.36800
N386        N  0.74916402  0.44151586  0.12924016    -0.43440
N387        N  0.88147372  0.60265155  0.00977396    -0.43440
C388        C  0.67309304  0.15271577  0.08464096     0.00140
C389        C  0.67791114  0.13613067  0.05784773    -0.11730
C390        C  0.64710025  0.10860394  0.04131827     0.02380
C391        C  0.61020630  0.09689676  0.05168561     0.00060
C392        C  0.60559688  0.11410398  0.07825881    -0.11670
C393        C  0.63639689  0.14176155  0.09458597     0.02270
H394        H  0.70598809  0.14454119  0.04991675     0.15250
H395        H  0.57782228  0.10627754  0.08642113     0.15250
C396        C  0.62935825  0.15937338  0.12078108     0.36900
C397        C  0.65472112  0.09320476  0.01392746     0.36800
N398        N  0.62357371  0.17337757  0.14175912    -0.43440
N399        N  0.66131978  0.08118148  0.49201936    -0.43440
C400        C  0.79330802  0.27461563  0.08409294     0.00140
C401        C  0.79217187  0.30794689  0.08530620    -0.11730
C402        C  0.81787511  0.33944686  0.06844053     0.02380
C403        C  0.84553098  0.33789805  0.05018073     0.00060
C404        C  0.84652101  0.30437848  0.04903947    -0.11670
C405        C  0.82077153  0.27290505  0.06586700     0.02270
H406        H  0.77068116  0.30908682  0.09901211     0.15250
H407        H  0.86780961  0.30286535  0.03536503     0.15250
C408        C  0.82346251  0.23938045  0.06465262     0.36900
C409        C  0.81387892  0.37219152  0.06892217     0.36800
N410        N  0.82565106  0.21252644  0.06381381    -0.43440
N411        N  0.81026279  0.39821015  0.06912842    -0.43440
C412        C  0.61445240  0.09550803  0.38558867     0.00140
C413        C  0.61052137  0.12333422  0.37033053    -0.11730
C414        C  0.64043292  0.15187810  0.35387248     0.02380
C415        C  0.67479082  0.15248243  0.35209104     0.00060
C416        C  0.67880008  0.12462343  0.36702854    -0.11670
C417        C  0.64897599  0.09612691  0.38366908     0.02270
H418        H  0.58419119  0.12313358  0.37171041     0.15250
H419        H  0.70517884  0.12495531  0.36537512     0.15250
C420        C  0.65411905  0.06699014  0.39704849     0.36900
C421        C  0.63561096  0.18079664  0.33961362     0.36800
N422        N  0.65835412  0.04362686  0.40761497    -0.43440
N423        N  0.63186619  0.20413846  0.32837037    -0.43440
C424        C  0.73951972  0.20819786  0.18469777     0.00140
C425        C  0.70650889  0.20044471  0.20027269    -0.11730
C426        C  0.70470420  0.20022785  0.23272014     0.02380
C427        C  0.73652784  0.20794606  0.25049532     0.00060
C428        C  0.76959971  0.21554920  0.23497685    -0.11670
C429        C  0.77131423  0.21558574  0.20238181     0.02270
H430        H  0.68210200  0.19529277  0.18696825     0.15250
H431        H  0.79409417  0.22117376  0.24840155     0.15250
C432        C  0.80560958  0.22222250  0.18776383     0.36900
C433        C  0.67017068  0.19343619  0.24695412     0.36800
N434        N  0.83313074  0.22760799  0.17606881    -0.43440
N435        N  0.64227857  0.18773203  0.25809289    -0.43440
C436        C  0.84633317  0.34016437  0.38241788     0.00140
C437        C  0.82069501  0.34295739  0.36276347    -0.11730
C438        C  0.79330558  0.31164197  0.34666996     0.02380
C439        C  0.79134416  0.27676096  0.35000893     0.00060
C440        C  0.81670348  0.27374969  0.36963729    -0.11670
C441        C  0.84421004  0.30500105  0.38567380     0.02270
H442        H  0.82165471  0.36954041  0.36024698     0.15250
H443        H  0.81529565  0.24692181  0.37207236     0.15250
C444        C  0.87062167  0.30020051  0.40421259     0.36900
C445        C  0.76673916  0.31561518  0.32763562     0.36800
N446        N  0.89181629  0.29623767  0.41892548    -0.43440
N447        N  0.74530841  0.31863021  0.31243812    -0.43440
C448        C  0.30878610  0.44583474  0.38448370     0.00140
C449        C  0.27467715  0.43366274  0.39995385    -0.11730
C450        C  0.24355014  0.43092791  0.38461192     0.02380
C451        C  0.24644044  0.44192695  0.35303093     0.00060
C452        C  0.28093581  0.45475714  0.33776866    -0.11670
C453        C  0.31152780  0.45593758  0.35279362     0.02270
H454        H  0.27195081  0.42568275  0.42424570     0.15250
H455        H  0.28416597  0.46376334  0.31372639     0.15250
C456        C  0.34454538  0.46585739  0.33446365     0.36900
C457        C  0.20890727  0.41520517  0.40185582     0.36800
N458        N  0.37073658  0.47334510  0.31955950    -0.43440
N459        N  0.18143810  0.40280932  0.41606662    -0.43440
C460        C  0.13009215  0.45166000  0.34882484     0.00140
C461        C  0.11673524  0.43374204  0.37750897    -0.11730
C462        C  0.08992024  0.43754957  0.39441293     0.02380
C463        C  0.07521985  0.45947402  0.38243991     0.00060
C464        C  0.08885708  0.47767405  0.35375003    -0.11670
C465        C  0.11604586  0.47408106  0.33700185     0.02270
H466        H  0.12712204  0.41624056  0.38671243     0.15250
H467        H  0.07840245  0.49488152  0.34415855     0.15250
C468        C  0.12968196  0.49458143  0.30826672     0.36900
C469        C  0.07851971  0.41845173  0.42392162     0.36800
N470        N  0.14043437  0.51088542  0.28516343    -0.43440
N471        N  0.06987609  0.40287057  0.44747633    -0.43440
C472        C  0.17869047  0.42600461  0.18595132     0.00140
C473        C  0.21087811  0.45237351  0.20175079    -0.11730
C474        C  0.21247850  0.45296041  0.23417911     0.02380
C475        C  0.18112655  0.42694732  0.25157803     0.00060
C476        C  0.14902872  0.40007968  0.23581140    -0.11670
C477        C  0.14779140  0.39910042  0.20318955     0.02270
H478        H  0.23464373  0.47316453  0.18865144     0.15250
H479        H  0.12504052  0.37973545  0.24902562     0.15250
C480        C  0.11537874  0.36926628  0.18801549     0.36900
C481        C  0.24613259  0.48165451  0.24895433     0.36800
N482        N  0.08954484  0.34485238  0.17608210    -0.43440
N483        N  0.27317119  0.50451862  0.26077215    -0.43440
C484        C  0.30792380  0.44715101  0.05196957     0.00140
C485        C  0.31202503  0.46390719  0.08125245    -0.11730
C486        C  0.28110434  0.45977352  0.09803291     0.02380
C487        C  0.24446062  0.43775561  0.08587818     0.00060
C488        C  0.24030766  0.42115221  0.05650296    -0.11670
C489        C  0.27137721  0.42588081  0.03944338     0.02270
H490        H  0.33957620  0.48061129  0.09130846     0.15250
H491        H  0.21254667  0.40426027  0.04674082     0.15250
C492        C  0.26439746  0.40896146  0.50897407     0.36900
C493        C  0.28848489  0.47985267  0.12712414     0.36800
N494        N  0.25803064  0.39519548  0.48459410    -0.43440
N495        N  0.29497192  0.49599044  0.15044587    -0.43440
C496        C  0.12573277  0.44518557  0.08615668     0.00140
C497        C  0.13652913  0.46593290  0.05815093    -0.11730
C498        C  0.11093088  0.47066716  0.04014310     0.02380
C499        C  0.07426341  0.45707756  0.05097407     0.00060
C500        C  0.06341569  0.43778076  0.07915248    -0.11670
C501        C  0.08804848  0.43067978  0.09626213     0.02270
H502        H  0.16509546  0.47867154  0.04992207     0.15250
H503        H  0.03483008  0.42664796  0.08714587     0.15250
C504        C  0.07234657  0.40675248  0.12298960     0.36900
C505        C  0.12290687  0.48958919  0.01058221     0.36800
N506        N  0.05875108  0.38778559  0.14441189    -0.43440
N507        N  0.13231734  0.50440002  0.48674192    -0.43440
C508        C  0.13223578  0.69288514  0.08307318     0.00140
C509        C  0.10537971  0.69703116  0.06653373    -0.11730
C510        C  0.07635744  0.66660878  0.05082235     0.02380
C511        C  0.07395057  0.63119734  0.05173975     0.00060
C512        C  0.10126925  0.62737763  0.06802694    -0.11670
C513        C  0.13049441  0.65794991  0.08336266     0.02270
H514        H  0.10684722  0.72401312  0.06628460     0.15250
H515        H  0.10015329  0.60057614  0.06839884     0.15250
C516        C  0.15908231  0.65318024  0.09831239     0.36900
C517        C  0.04872619  0.67231524  0.03515384     0.36800
N518        N  0.18219693  0.64933951  0.10989555    -0.43440
N519        N  0.02660355  0.67697817  0.02265826    -0.43440
C520        C  0.25251904  0.81468203  0.08318589     0.00140
C521        C  0.28883128  0.82672199  0.09404292    -0.11730
C522        C  0.32037762  0.85389033  0.07805110     0.02380
C523        C  0.31604344  0.86953086  0.05011650     0.00060
C524        C  0.27958455  0.85759182  0.03947212    -0.11670
C525        C  0.24809590  0.83084079  0.05573112     0.02270
H526        H  0.29264761  0.81442827  0.11499643     0.15250
H527        H  0.27531684  0.86947861  0.01852694     0.15250
C528        C  0.21159887  0.82152277  0.04418278     0.36900
C529        C  0.35655639  0.86477127  0.09119898     0.36800
N530        N  0.18237977  0.81399543  0.03484805    -0.43440
N531        N  0.38524937  0.87325233  0.10226944    -0.43440
C532        C  0.13253262  0.69221654  0.35071880     0.00140
C533        C  0.12401184  0.69902548  0.38080562    -0.11730
C534        C  0.09679019  0.67032643  0.39913278     0.02380
C535        C  0.07561841  0.63360844  0.38684714     0.00060
C536        C  0.08449771  0.62666671  0.35683964    -0.11670
C537        C  0.11287763  0.65520008  0.33901664     0.02270
H538        H  0.13890509  0.72714881  0.39027094     0.15250
H539        H  0.06939487  0.59862955  0.34718045     0.15250
C540        C  0.12206631  0.64510153  0.30946354     0.36900
C541        C  0.09310734  0.67995443  0.43071414     0.36800
N542        N  0.12923905  0.63678649  0.28579598    -0.43440
N543        N  0.09124523  0.68863313  0.45599573    -0.43440
C544        C  0.18598188  0.75756478  0.18407112     0.00140
C545        C  0.19202731  0.79015843  0.19965273    -0.11730
C546        C  0.19121388  0.79160333  0.23229512     0.02380
C547        C  0.18427963  0.75995699  0.24999451     0.00060
C548        C  0.17803873  0.72745347  0.23437332    -0.11670
C549        C  0.17894370  0.72597010  0.20195107     0.02270
H550        H  0.19709412  0.81448469  0.18626461     0.15250
H551        H  0.17356221  0.70326994  0.24768508     0.15250
C552        C  0.17417723  0.69200391  0.18800974     0.36900
C553        C  0.19675361  0.82551932  0.24693235     0.36800
N554        N  0.17006909  0.66444509  0.17732766    -0.43440
N555        N  0.20133737  0.85277787  0.25864178    -0.43440
C556        C  0.25595143  0.81267572  0.34935173     0.00140
C557        C  0.29046992  0.83032717  0.33368525    -0.11730
C558        C  0.32267007  0.85939633  0.34742380     0.02380
C559        C  0.32168741  0.86992064  0.37866354     0.00060
C560        C  0.28732253  0.85209773  0.39450916    -0.11670
C561        C  0.25459628  0.82446485  0.38011847     0.02270
H562        H  0.29239537  0.82187502  0.31017114     0.15250
H563        H  0.28574591  0.86029896  0.41821718     0.15250
C564        C  0.21999369  0.81039969  0.39720078     0.36900
C565        C  0.35503031  0.87921944  0.32766259     0.36800
N566        N  0.19247584  0.79931816  0.41116745    -0.43440
N567        N  0.38035684  0.89499180  0.31113627    -0.43440
C568        C  0.49471791  0.68655995  0.35112995     0.00140
C569        C  0.47722154  0.65189072  0.33557849    -0.11730
C570        C  0.47354296  0.61954661  0.34920164     0.02380
C571        C  0.48504750  0.62046159  0.38032619     0.00060
C572        C  0.50253175  0.65504917  0.39604968    -0.11670
C573        C  0.50820599  0.68796956  0.38166959     0.02270
H574        H  0.46659059  0.64987937  0.31219918     0.15250
H575        H  0.51249899  0.65661748  0.41965120     0.15250
C576        C  0.52951144  0.72274569  0.39843291     0.36900
C577        C  0.46031991  0.58704819  0.32943318     0.36800
N578        N  0.54653472  0.75052195  0.41201132    -0.43440
N579        N  0.45025168  0.56165501  0.31284995    -0.43440
C580        C  0.49310071  0.80786868  0.35006149     0.00140
C581        C  0.46339125  0.79861925  0.37083887    -0.11730
C582        C  0.46136391  0.82645116  0.38800466     0.02380
C583        C  0.48939526  0.86414010  0.38452326     0.00060
C584        C  0.51896949  0.87356706  0.36382082    -0.11670
C585        C  0.52112490  0.84586155  0.34664815     0.02270
H586        H  0.44172109  0.76960601  0.37362149     0.15250
H587        H  0.54063417  0.90264504  0.36131639     0.15250
C588        C  0.55316196  0.85707300  0.32667742     0.36900
C589        C  0.43050206  0.81580947  0.40919853     0.36800
N590        N  0.57879198  0.86605721  0.31062859    -0.43440
N591        N  0.40582104  0.80738599  0.42622575    -0.43440
C592        C  0.49377447  0.68643138  0.08379566     0.00140
C593        C  0.45817328  0.65675596  0.07609720    -0.11730
C594        C  0.45416396  0.62582567  0.05932151     0.02380
C595        C  0.48621530  0.62486041  0.04940208     0.00060
C596        C  0.52184142  0.65467970  0.05693958    -0.11670
C597        C  0.52581502  0.68513778  0.07444501     0.02270
H598        H  0.43351185  0.65780277  0.08324306     0.15250
H599        H  0.54655487  0.65383350  0.04961868     0.15250
C600        C  0.56289570  0.71471690  0.08258818     0.36900
C601        C  0.41700413  0.59603280  0.05161764     0.36800
N602        N  0.59257854  0.73835626  0.08929490    -0.43440
N603        N  0.38726581  0.57214588  0.04535653    -0.43440
C604        C  0.48662137  0.86271852  0.05090878     0.00140
C605        C  0.46281049  0.84503755  0.07637390    -0.11730
C606        C  0.46414682  0.81652163  0.09283165     0.02380
C607        C  0.48995397  0.80521683  0.08408970     0.00060
C608        C  0.51309016  0.82208413  0.05823608    -0.11670
C609        C  0.51161748  0.85038782  0.04157521     0.02270
H610        H  0.44281260  0.85324074  0.08356177     0.15250
H611        H  0.53288683  0.81343094  0.05126493     0.15250
C612        C  0.53649973  0.86616707  0.01530127     0.36900
C613        C  0.43788289  0.79857039  0.11794619     0.36800
N614        N  0.55653587  0.87853733  0.49426613    -0.43440
N615        N  0.41683915  0.78423032  0.13807759    -0.43440
C616        C  0.50547051  0.75230237  0.18444149     0.00140
C617        C  0.48119396  0.71946733  0.20065051    -0.11730
C618        C  0.48045575  0.71856939  0.23313615     0.02380
C619        C  0.50463884  0.75109618  0.25033823     0.00060
C620        C  0.52916262  0.78396635  0.23420440    -0.11670
C621        C  0.52986692  0.78483116  0.20157614     0.02270
H622        H  0.46182956  0.69452398  0.18782527     0.15250
H623        H  0.54798100  0.80901492  0.24716761     0.15250
C624        C  0.55642739  0.81918792  0.18639756     0.36900
C625        C  0.45317401  0.68428409  0.24801760     0.36800
N626        N  0.57761126  0.84682340  0.17429328    -0.43440
N627        N  0.43124664  0.65666546  0.25969501    -0.43440
C628        C  0.49670009  0.71878113  0.60096867     0.03430
C629        C  0.50246874  0.72178478  0.63317777    -0.12720
C630        C  0.50338123  0.75158150  0.64986735     0.00930
C631        C  0.49897440  0.77865640  0.63368619    -0.11250
C632        C  0.49354232  0.77605285  0.60131383     0.03420
C633        C  0.49235930  0.74591557  0.58513418    -0.10670
H634        H  0.50554964  0.70049924  0.64530135     0.09020
H635        H  0.49922141  0.80150626  0.64631497     0.06550
H636        H  0.48771843  0.74334985  0.56022433     0.06390
C637        C  0.49860445  0.72010526  0.83437005     0.03430
C638        C  0.50548510  0.72371330  0.80211286    -0.12720
C639        C  0.50369738  0.75157152  0.78491733     0.00930
C640        C  0.49939443  0.77893413  0.80069414    -0.11250
C641        C  0.49518128  0.77753318  0.83315424     0.03420
C642        C  0.49284615  0.74704827  0.84956585    -0.10670
H643        H  0.51111732  0.70403849  0.78996928     0.09020
H644        H  0.49855200  0.80093655  0.78767124     0.06550
H645        H  0.48643481  0.74450179  0.87413943     0.06390
C646        C  0.22203964  0.78341692  0.83255141     0.03430
C647        C  0.21709925  0.78729135  0.80062664    -0.12720
C648        C  0.18561624  0.75990366  0.78460318     0.00930
C649        C  0.15749794  0.72958371  0.80123040    -0.11250
C650        C  0.16228689  0.72434852  0.83278947     0.03420
C651        C  0.19530287  0.75081715  0.84784068    -0.10670
H652        H  0.23827829  0.81109993  0.78789771     0.09020
H653        H  0.13215335  0.70977310  0.78922817     0.06550
H654        H  0.20019881  0.74577698  0.87158493     0.06390
C655        C  0.21999830  0.78470208  0.60044067     0.03430
C656        C  0.21764251  0.78611611  0.63309877    -0.12720
C657        C  0.18744545  0.75715267  0.64941621     0.00930
C658        C  0.15893653  0.72734459  0.63255655    -0.11250
C659        C  0.16150031  0.72524310  0.60024993     0.03420
C660        C  0.19205787  0.75359800  0.58434826    -0.10670
H661        H  0.23955491  0.80949023  0.64585068     0.09020
H662        H  0.13480579  0.70544683  0.64455944     0.06550
H663        H  0.19423926  0.75106049  0.55945004     0.06390
C664        C  0.15388619  0.43862302  0.60331899     0.03430
C665        C  0.18300806  0.43725180  0.58698202    -0.12720
C666        C  0.21061708  0.43308752  0.60268950     0.00930
C667        C  0.20655985  0.42595012  0.63469385    -0.11250
C668        C  0.17854333  0.42777471  0.65155303     0.03420
C669        C  0.15339489  0.43561276  0.63604461    -0.10670
H670        H  0.18500316  0.44032291  0.56200366     0.09020
H671        H  0.22614231  0.42031271  0.64689275     0.06550
H672        H  0.13457020  0.44069526  0.64993986     0.06390
C673        C  0.15860100  0.44611131  0.83230337     0.03430
C674        C  0.15441640  0.43587070  0.80079079    -0.12720
C675        C  0.18088262  0.42941803  0.78595914     0.00930
C676        C  0.20927617  0.42913958  0.80357391    -0.11250
C677        C  0.21428505  0.43965213  0.83514118     0.03420
C678        C  0.18954756  0.44962640  0.84879075    -0.10670
H679        H  0.13117304  0.43381496  0.78754711     0.09020
H680        H  0.22813339  0.42179669  0.79217599     0.06550
H681        H  0.19421559  0.46037017  0.87232615     0.06390
C682        C  0.76292942  0.24304324  0.83345788     0.03430
C683        C  0.76380505  0.24087291  0.80091784    -0.12720
C684        C  0.73623290  0.20927733  0.78503676     0.00930
C685        C  0.70794867  0.17964063  0.80218362    -0.11250
C686        C  0.70664748  0.18195822  0.83463299     0.03420
C687        C  0.73443327  0.21340382  0.85025312    -0.10670
H688        H  0.78560529  0.26407902  0.78796577     0.09020
H689        H  0.68656980  0.15496747  0.79031498     0.06550
H690        H  0.73325116  0.21529829  0.87533528     0.06390
C691        C  0.76485045  0.24164425  0.60125775     0.03430
C692        C  0.76685012  0.24005613  0.63371527    -0.12720
C693        C  0.73957308  0.20888488  0.65013326     0.00930
C694        C  0.70994696  0.17965482  0.63366133    -0.11250
C695        C  0.70661537  0.18186320  0.60136180     0.03420
C696        C  0.73474694  0.21261525  0.58517981    -0.10670
H697        H  0.78920921  0.26342137  0.64613783     0.09020
H698        H  0.68885622  0.15547323  0.64617772     0.06550
H699        H  0.73261730  0.21465944  0.56022549     0.06390
C700        C  0.70092968  0.53160990  0.60115053     0.03430
C701        C  0.70350779  0.53666327  0.63353748    -0.12720
C702        C  0.73375967  0.53851328  0.64983756     0.00930
C703        C  0.76127516  0.53491447  0.63365653    -0.11250
C704        C  0.75890307  0.52978681  0.60135840     0.03420
C705        C  0.72892387  0.52854355  0.58512528    -0.10670
H706        H  0.68153212  0.53818153  0.64611616     0.09020
H707        H  0.78431623  0.53560290  0.64628810     0.06550
H708        H  0.72667882  0.52382536  0.56021522     0.06390
C709        C  0.69666696  0.52241646  0.83087637     0.03430
C710        C  0.70307755  0.53409944  0.79970921    -0.12720
C711        C  0.73464764  0.53832923  0.78400236     0.00930
C712        C  0.76247871  0.53559590  0.80040678    -0.11250
C713        C  0.75696224  0.52401182  0.83162954     0.03420
C714        C  0.72327974  0.51641283  0.84621203    -0.10670
H715        H  0.68305563  0.53871454  0.78716678     0.09020
H716        H  0.78796291  0.54191753  0.78832939     0.06550
H717        H  0.71755396  0.50556836  0.86969444     0.06390
C718        C  0.41583327  0.17661330  0.83301752     0.03430
C719        C  0.41716705  0.20666522  0.84936761    -0.12720
C720        C  0.41016241  0.23268210  0.83425543     0.00930
C721        C  0.40347793  0.22913040  0.80196688    -0.11250
C722        C  0.40362199  0.20000703  0.78509730     0.03420
C723        C  0.40931099  0.17359332  0.80090145    -0.10670
H724        H  0.42405136  0.20988079  0.87389141     0.09020
H725        H  0.39935712  0.24970298  0.78976523     0.06550
H726        H  0.40971304  0.15119604  0.78800412     0.06450
C727        C  0.41187573  0.17557793  0.60077422     0.03430
C728        C  0.40790478  0.17310987  0.63325028    -0.12720
C729        C  0.40317188  0.19950709  0.65019315     0.00930
C730        C  0.40120930  0.22805437  0.63427866    -0.11250
C731        C  0.40665239  0.23217019  0.60184973     0.03420
C732        C  0.41222358  0.20580050  0.58540191    -0.10670
H733        H  0.40963673  0.15120730  0.64560461     0.09020
H734        H  0.39705675  0.24806917  0.64748371     0.06550
H735        H  0.41767271  0.20914990  0.56066941     0.06390
C736        C  0.48064676  0.58683391  0.89689745     0.42760
N737        N  0.49123935  0.55360180  0.92925048     0.01650
C738        C  0.40559026  0.35991741  0.93235652    -0.06230
H739        H  0.31479450  0.41007367  0.94534061     0.07140
C740        C  0.38117298  0.47402658  0.54575732    -0.06580
Co741      Co  0.45145474  0.47270061  0.91130307     0.74180
N742        N  0.37378955  0.43597563  0.93628324    -0.25760
Co743      Co  0.39506559  0.41755539  0.97152826     0.74070
C744        C  0.34200083  0.45189356  0.53569262     0.42860
N745        N  0.47278599  0.53776477  0.52132465     0.01260
N746        N  0.37688989  0.44098866  0.50531621     0.01370
N747        N  0.44206167  0.39677154  0.89335116    -0.46610
H748        H  0.43909255  0.53373496  0.86933612     0.07130
N749        N  0.39521610  0.45716820  0.91344649     0.01650
N750        N  0.41756587  0.40041952  0.50691961     0.01390
C751        C  0.42666723  0.36682218  0.54014146     0.43000
N752        N  0.49479643  0.55874068  0.49858280    -0.25210
C753        C  0.52671637  0.47945229  0.88995579    -0.06130
N754        N  0.50012375  0.58840665  0.92266664    -0.46320
N755        N  0.40794629  0.36551996  0.51393557    -0.46540
C756        C  0.56588617  0.50130218  0.89968907     0.42770
N757        N  0.43570028  0.41633963  0.91443137     0.01640
N758        N  0.53508658  0.51829093  0.49948790    -0.25240
N759        N  0.46725214  0.52909664  0.90928254    -0.25730
N760        N  0.51418767  0.49737683  0.52268644     0.01280
H761        H  0.59379902  0.54519120  0.98953920     0.07170
H762        H  0.46771040  0.41989745  0.56804460     0.07210
N763        N  0.41423803  0.39540516  0.93736943    -0.25780
N764        N  0.40051401  0.46529531  0.52564533    -0.25390
N765        N  0.53177408  0.51278674  0.93047122     0.01650
C766        C  0.34037132  0.44690311  0.90184158     0.43040
C767        C  0.50320650  0.59422437  0.50328683    -0.06640
N768        N  0.44139721  0.42487336  0.52703768    -0.25390
H769        H  0.39309596  0.49256180  0.56549302     0.07190
N770        N  0.37636050  0.46427679  0.89232255    -0.46610
H771        H  0.52167084  0.61798745  0.98906451     0.07180
C772        C  0.56990757  0.50933098  0.53370379     0.42880
C773        C  0.45832789  0.54719901  0.88831247    -0.06140
Co774      Co  0.51381230  0.53645813  0.96440066     0.73820
N775        N  0.46524392  0.55718216  0.54173429    -0.46330
C776        C  0.42409018  0.36081399  0.90297570     0.43140
N777        N  0.56674255  0.52147912  0.92481024    -0.46320
Co778      Co  0.45733330  0.48140995  0.52484825     0.73890
C779        C  0.44932534  0.40653348  0.54858403    -0.06650
C780        C  0.33862873  0.42807388  0.93107304    -0.06210
N781        N  0.50788691  0.48848319  0.91029623    -0.25740
N782        N  0.34178350  0.43203335  0.51061163    -0.46500
H783        H  0.38701518  0.33639422  0.94673023     0.07150
C784        C  0.57050997  0.52714753  0.50430312    -0.06620
Cl785      Cl  0.45444215  0.47699522  0.96807360    -0.49620
C786        C  0.48317526  0.59290017  0.53162510     0.42910
H787        H  0.51446918  0.46087556  0.87028617     0.07120
N788        N  0.53402502  0.49157858  0.54389706    -0.46330
C789        C  0.04332244  0.59781884  0.53637151     0.42760
N790        N  0.99813261  0.56337148  0.50573587     0.01650
C791        C  0.89248344  0.36995053  0.50379103    -0.06230
H792        H  0.03619592  0.42519335  0.98892486     0.07140
C793        C  0.02711070  0.48397289  0.88879298    -0.06580
Co794      Co  0.95798233  0.48305647  0.52502496     0.74180
N795        N  0.00059817  0.44818647  0.49925845    -0.25760
Co796      Co  0.95986231  0.42821988  0.96466087     0.74070
C797        C  0.04544776  0.46320434  0.89880243     0.42860
N798        N  0.99867637  0.54651725  0.91370901     0.01260
N799        N  0.00038089  0.45186784  0.93009875     0.01370
N800        N  0.89113390  0.40642590  0.54259907    -0.46610
H801        H  0.03271947  0.54723605  0.56638171     0.07130
N802        N  0.99955783  0.46840339  0.52266522     0.01650
N803        N  0.91905938  0.40954168  0.93018045     0.01390
C804        C  0.87493720  0.37420993  0.89883243     0.43000
N805        N  0.99800429  0.56726876  0.93674049    -0.25210
C806        C  0.88960046  0.49057844  0.54697580    -0.06130
N807        N  0.02442643  0.59842299  0.51105256    -0.46320
N808        N  0.89379398  0.37423895  0.92442445    -0.46540
C809        C  0.87270490  0.51272679  0.53699512     0.42770
N810        N  0.91775423  0.42631481  0.52207327     0.01640
N811        N  0.91696792  0.52584773  0.93686470    -0.25240
N812        N  0.99832515  0.53974484  0.52624178    -0.25730
N813        N  0.91653883  0.50437768  0.91394562     0.01280
H814        H  0.88473336  0.55200810  0.94718771     0.07170
H815        H  0.88470700  0.42460852  0.86886042     0.07210
N816        N  0.91913711  0.40559228  0.49924150    -0.25780
N817        N  0.99960577  0.47505950  0.90950139    -0.25390
N818        N  0.91693566  0.52207648  0.50559264     0.01650
C819        C  0.04624408  0.46103492  0.53273590     0.43040
C820        C  0.02532853  0.60261604  0.93255869    -0.06640
N821        N  0.91826614  0.43291086  0.90973064    -0.25390
H822        H  0.03252956  0.50174616  0.86876802     0.07190
N823        N  0.02595773  0.47605296  0.54361995    -0.46610
H824        H  0.02967790  0.62548275  0.94744413     0.07180
C825        C  0.87059995  0.51345443  0.90412038     0.42880
C826        C  0.02621975  0.55891155  0.54648070    -0.06140
Co827      Co  0.95754103  0.54522521  0.97125020     0.73820
N828        N  0.02582845  0.56612398  0.89353540    -0.46330
C829        C  0.87375456  0.37061151  0.53238598     0.43140
N830        N  0.89119470  0.53139207  0.51124361    -0.46320
Co831      Co  0.95818770  0.48977938  0.91096417     0.73890
C832        C  0.89101283  0.41321074  0.88905914    -0.06650
C833        C  0.02925662  0.44212956  0.50358533    -0.06210
N834        N  0.91685694  0.49842249  0.52619326    -0.25740
N835        N  0.02705963  0.44384794  0.92441911    -0.46500
H836        H  0.88750329  0.34645781  0.98926811     0.07150
C837        C  0.88938139  0.53339750  0.93262363    -0.06620
Cl838      Cl  0.95831885  0.48649823  0.96798555    -0.49620
C839        C  0.04433817  0.60193845  0.90396027     0.42910
H840        H  0.88387039  0.47327181  0.56737588     0.07120
N841        N  0.88943802  0.49653978  0.89367761    -0.46330
C842        C  0.48508977  0.89401579  0.53518664     0.42760
N843        N  0.49827896  0.94007900  0.50462010     0.01650
C844        C  0.41828576  0.05260840  0.50222370    -0.06230
H845        H  0.32431813  0.91056358  0.98781655     0.07140
C846        C  0.39456275  0.91701738  0.88685282    -0.06580
Co847      Co  0.46065386  0.98279300  0.52375909     0.74180
N848        N  0.38320544  0.94310449  0.49771573    -0.25760
Co849      Co  0.40593866  0.98394044  0.96310285     0.74070
C850        C  0.35502887  0.89970553  0.89529682     0.42860
N851        N  0.48278519  0.94166902  0.91236470     0.01260
N852        N  0.38817591  0.94364603  0.92791268     0.01370
N853        N  0.45339522  0.05094682  0.54189153    -0.46610
H854        H  0.44684612  0.90759710  0.56510001     0.07130
N855        N  0.40396258  0.94284648  0.52089276     0.01650
N856        N  0.43013327  0.02507553  0.92912324     0.01390
C857        C  0.44297947  0.07129509  0.89927521     0.43000
N858        N  0.50304966  0.94039668  0.93552540    -0.25210
C859        C  0.53704734  0.05026123  0.54563251    -0.06130
N860        N  0.50528222  0.91263759  0.50994548    -0.46320
N861        N  0.42178336  0.05155793  0.92363165    -0.46540
C862        C  0.57623512  0.06690668  0.53581892     0.42770
N863        N  0.44616530  0.02444583  0.52104035     0.01640
N864        N  0.54624240  0.02166420  0.93619752    -0.25240
N865        N  0.47489216  0.94101210  0.52502318    -0.25730
N866        N  0.52591353  0.02338176  0.91333524     0.01280
H867        H  0.60517220  0.05252947  0.94645179     0.07170
H868        H  0.48298318  0.06043410  0.86950358     0.07210
N869        N  0.42527659  0.02455818  0.49787333    -0.25780
N870        N  0.41261050  0.94407128  0.90792009    -0.25390
N871        N  0.54124954  0.02161257  0.50505777     0.01650
C872        C  0.34844987  0.89860730  0.53203326     0.43040
C873        C  0.50841807  0.91127750  0.93102483    -0.06640
N874        N  0.45470138  0.02551289  0.90918195    -0.25390
H875        H  0.40804383  0.91106247  0.86798477     0.07190
N876        N  0.38431291  0.91692369  0.54190619    -0.46610
H877        H  0.52468840  0.90356938  0.94570603     0.07180
C878        C  0.58199054  0.06623548  0.90283838     0.42880
C879        C  0.46493492  0.91298665  0.54528253    -0.06140
Co880      Co  0.52282097  0.98087654  0.97043646     0.73820
N881        N  0.47382182  0.91464698  0.89168596    -0.46330
C882        C  0.43740883  0.07028899  0.53105514     0.43140
N883        N  0.57641225  0.04744410  0.51060015    -0.46320
Co884      Co  0.46915573  0.98381505  0.91007641     0.73890
C885        C  0.46449806  0.05390518  0.88925476    -0.06650
C886        C  0.34771494  0.91608793  0.50257047    -0.06210
N887        N  0.51763974  0.02252104  0.52526095    -0.25740
N888        N  0.35336141  0.91765710  0.92115853    -0.46500
H889        H  0.40088243  0.05892546  0.98761878     0.07150
C890        C  0.58205751  0.04782785  0.93171461    -0.06620
Cl891      Cl  0.46463462  0.98287504  0.96684985    -0.49620
C892        C  0.48852910  0.89411710  0.90227294     0.42910
H893        H  0.52511173  0.05689442  0.56533416     0.07120
N894        N  0.54622529  0.04972012  0.89278280    -0.46330
C895        C  0.41014161  0.26602006  0.58595811     0.00140
C896        C  0.42959661  0.30081227  0.60116575    -0.11730
C897        C  0.43400985  0.33358957  0.58767678     0.02380
C898        C  0.42120642  0.33282839  0.55698711     0.00060
C899        C  0.40132696  0.29793783  0.54186596    -0.11670
C900        C  0.39489535  0.26474519  0.55622154     0.02270
H901        H  0.44132604  0.30257149  0.62407230     0.15250
H902        H  0.39007938  0.29633834  0.51877021     0.15250
C903        C  0.37101289  0.22981236  0.54041734     0.36900
C904        C  0.44931952  0.36637553  0.60726087     0.36800
N905        N  0.35179715  0.20187799  0.52769871    -0.43440
N906        N  0.46092729  0.39185433  0.62390863    -0.43440
C907        C  0.43212134  0.09744718  0.54930301     0.00140
C908        C  0.40382195  0.08417195  0.57178986    -0.11730
C909        C  0.39624315  0.10887265  0.58838629     0.02380
C910        C  0.41807493  0.14795307  0.58313428     0.00060
C911        C  0.44654356  0.16098732  0.56049796    -0.11670
C912        C  0.45326778  0.13606175  0.54333101     0.02270
H913        H  0.38692383  0.05427717  0.57578601     0.15250
H914        H  0.46372793  0.19076434  0.55621822     0.15250
C915        C  0.48178979  0.15062500  0.51953627     0.36900
C916        C  0.36475870  0.09304917  0.60946345     0.36800
N917        N  0.50450043  0.16222024  0.00034175    -0.43440
N918        N  0.33954433  0.08026034  0.62636539    -0.43440
C919        C  0.40203975  0.19921754  0.75058087     0.00140
C920        C  0.43118173  0.19860510  0.73426695    -0.11730
C921        C  0.43196972  0.19862790  0.70178707     0.02380
C922        C  0.40283921  0.19883283  0.68476323     0.00060
C923        C  0.37364313  0.19955480  0.70103184    -0.11670
C924        C  0.37300043  0.19972469  0.73368418     0.02270
H925        H  0.45397318  0.19892908  0.74703940     0.15250
H926        H  0.35115216  0.19970403  0.68817079     0.15250
C927        C  0.34183768  0.19942287  0.74922671     0.36900
C928        C  0.46393596  0.20013520  0.68661910     0.36800
N929        N  0.31686964  0.19924109  0.76165893    -0.43440
N930        N  0.48952442  0.20127578  0.67449106    -0.43440
C931        C  0.41237344  0.26497185  0.85178496     0.00140
C932        C  0.43243790  0.30096070  0.83884470    -0.11730
C933        C  0.43628465  0.33239754  0.85467748     0.02380
C934        C  0.42055891  0.32843240  0.88473463     0.00060
C935        C  0.40020526  0.29233787  0.89750816    -0.11670
C936        C  0.39555064  0.26082209  0.88130360     0.02270
H937        H  0.44559903  0.30470147  0.81625742     0.15250
H938        H  0.38738777  0.28834281  0.92023365     0.15250
C939        C  0.37221423  0.22452540  0.89520226     0.36900
C940        C  0.45606631  0.36802672  0.83898230     0.36800
N941        N  0.35359845  0.19551400  0.90646825    -0.43440
N942        N  0.47170021  0.39639406  0.82610314    -0.43440
C943        C  0.42269565  0.14911060  0.84943516     0.00140
C944        C  0.45601070  0.16197610  0.86638231    -0.11730
C945        C  0.46337367  0.13691370  0.88245566     0.02380
C946        C  0.43702204  0.09840472  0.88185543     0.00060
C947        C  0.40366167  0.08545672  0.86516818    -0.11670
C948        C  0.39636201  0.11039341  0.84886262     0.02270
H949        H  0.47633253  0.19166626  0.86698609     0.15250
H950        H  0.38322431  0.05577862  0.86498233     0.15250
C951        C  0.36116390  0.09571441  0.83263116     0.36900
C952        C  0.49755593  0.15132350  0.90012838     0.36800
N953        N  0.33299361  0.08394639  0.81957345    -0.43440
N954        N  0.52486907  0.16282180  0.91440795    -0.43440
C955        C  0.66253793  0.51649898  0.84790061     0.00140
C956        C  0.66638587  0.52910034  0.87882916    -0.11730
C957        C  0.63542986  0.52348304  0.89639312     0.02380
C958        C  0.59943653  0.50598948  0.88275832     0.00060
C959        C  0.59549468  0.49324055  0.85187907    -0.11670
C960        C  0.62631399  0.49786249  0.83458737     0.02270
H961        H  0.69385894  0.54338462  0.88952358     0.15250
H962        H  0.56820445  0.47948283  0.84096486     0.15250
C963        C  0.61936167  0.48185939  0.80372054     0.36900
C964        C  0.64167003  0.53474818  0.92865782     0.36800
N965        N  0.61366894  0.46919403  0.77892210    -0.43440
N966        N  0.64727509  0.54361679  0.95453589    -0.43440
C967        C  0.84037486  0.51499903  0.88654019     0.00140
C968        C  0.83504891  0.50407285  0.85515184    -0.11730
C969        C  0.80804516  0.50603881  0.83685467     0.02380
C970        C  0.78608589  0.52042951  0.84964670     0.00060
C971        C  0.79139299  0.53109185  0.88118757    -0.11670
C972        C  0.81711576  0.52743234  0.89979769     0.02270
H973        H  0.85205644  0.49372064  0.84469647     0.15250
H974        H  0.77509883  0.54222850  0.89168397     0.15250
C975        C  0.81693175  0.53464913  0.93264199     0.36900
C976        C  0.80329258  0.49187037  0.80547884     0.36800
N977        N  0.81587631  0.54010467  0.95894960    -0.43440
N978        N  0.80047493  0.48066617  0.78034114    -0.43440
C979        C  0.60299439  0.51448969  0.55155260     0.00140
C980        C  0.63861234  0.54434277  0.54359154    -0.11730
C981        C  0.67072369  0.55057011  0.55955046     0.02380
C982        C  0.66764806  0.52689954  0.58427393     0.00060
C983        C  0.63225494  0.49727881  0.59251161    -0.11670
C984        C  0.60011860  0.49068338  0.57628286     0.02270
H985        H  0.64164362  0.56333268  0.52502441     0.15250
H986        H  0.62986812  0.47863466  0.61123680     0.15250
C987        C  0.56505118  0.45828846  0.58471412     0.36900
C988        C  0.70642248  0.58194348  0.55059354     0.36800
N989        N  0.53718294  0.43200667  0.59153395    -0.43440
N990        N  0.73505746  0.60702414  0.54341850    -0.43440
C991        C  0.73563444  0.53947521  0.74965901     0.00140
C992        C  0.73800009  0.57022360  0.73374413    -0.11730
C993        C  0.73739807  0.57063317  0.70109494     0.02380
C994        C  0.73471624  0.54002921  0.68415974     0.00060
C995        C  0.73210450  0.50932950  0.70016015    -0.11670
C996        C  0.73189535  0.50853455  0.73257983     0.02270
H997        H  0.74018014  0.59373979  0.74681830     0.15250
H998        H  0.72911751  0.48538560  0.68720072     0.15250
C999        C  0.72519633  0.47456631  0.74777604     0.36900
C1000       C  0.74006696  0.60277591  0.68546293     0.36800
N1001       N  0.71925959  0.44713952  0.75990079    -0.43440
N1002       N  0.74212356  0.62847345  0.67286439    -0.43440
C1003       C  0.78737174  0.52475046  0.58467278     0.00140
C1004       C  0.81028691  0.55158650  0.56280916    -0.11730
C1005       C  0.83840336  0.54853132  0.54717333     0.02380
C1006       C  0.84357246  0.51763152  0.55307396     0.00060
C1007       C  0.82040183  0.49081124  0.57501454    -0.11670
C1008       C  0.79240331  0.49402218  0.59066816     0.02270
H1009       H  0.80664086  0.57542253  0.55841915     0.15250
H1010       H  0.82387820  0.46708619  0.57986883     0.15250
C1011       C  0.76845869  0.46488610  0.61211813     0.36900
C1012       C  0.86231006  0.57847293  0.52633050     0.36800
N1013       N  0.74916402  0.44151585  0.62924016    -0.43440
N1014       N  0.88147373  0.60265156  0.50977397    -0.43440
C1015       C  0.67309305  0.15271578  0.58464096     0.00140
C1016       C  0.67791114  0.13613067  0.55784773    -0.11730
C1017       C  0.64710026  0.10860395  0.54131827     0.02380
C1018       C  0.61020630  0.09689677  0.55168561     0.00060
C1019       C  0.60559688  0.11410399  0.57825881    -0.11670
C1020       C  0.63639690  0.14176157  0.59458597     0.02270
H1021       H  0.70598809  0.14454119  0.54991675     0.15250
H1022       H  0.57782229  0.10627756  0.58642113     0.15250
C1023       C  0.62935826  0.15937340  0.62078107     0.36900
C1024       C  0.65472112  0.09320476  0.51392746     0.36800
N1025       N  0.62357372  0.17337759  0.64175911    -0.43440
N1026       N  0.66131978  0.08118148  0.99201936    -0.43440
C1027       C  0.79330803  0.27461563  0.58409293     0.00140
C1028       C  0.79217187  0.30794690  0.58530620    -0.11730
C1029       C  0.81787511  0.33944687  0.56844053     0.02380
C1030       C  0.84553099  0.33789805  0.55018073     0.00060
C1031       C  0.84652103  0.30437849  0.54903947    -0.11670
C1032       C  0.82077154  0.27290505  0.56586700     0.02270
H1033       H  0.77068116  0.30908682  0.59901210     0.15250
H1034       H  0.86780963  0.30286536  0.53536504     0.15250
C1035       C  0.82346252  0.23938046  0.56465263     0.36900
C1036       C  0.81387892  0.37219152  0.56892215     0.36800
N1037       N  0.82565108  0.21252645  0.56381382    -0.43440
N1038       N  0.81026279  0.39821016  0.56912840    -0.43440
C1039       C  0.61445240  0.09550803  0.88558867     0.00140
C1040       C  0.61052136  0.12333422  0.87033052    -0.11730
C1041       C  0.64043291  0.15187809  0.85387247     0.02380
C1042       C  0.67479081  0.15248243  0.85209103     0.00060
C1043       C  0.67880008  0.12462344  0.86702855    -0.11670
C1044       C  0.64897599  0.09612692  0.88366908     0.02270
H1045       H  0.58419118  0.12313357  0.87171040     0.15250
H1046       H  0.70517884  0.12495533  0.86537512     0.15250
C1047       C  0.65411906  0.06699016  0.89704850     0.36900
C1048       C  0.63561094  0.18079663  0.83961360     0.36800
N1049       N  0.65835414  0.04362689  0.90761499    -0.43440
N1050       N  0.63186616  0.20413844  0.82837035    -0.43440
C1051       C  0.73951972  0.20819787  0.68469776     0.00140
C1052       C  0.70650889  0.20044472  0.70027269    -0.11730
C1053       C  0.70470419  0.20022786  0.73272014     0.02380
C1054       C  0.73652784  0.20794607  0.75049532     0.00060
C1055       C  0.76959970  0.21554921  0.73497685    -0.11670
C1056       C  0.77131423  0.21558575  0.70238181     0.02270
H1057       H  0.68210200  0.19529277  0.68696824     0.15250
H1058       H  0.79409416  0.22117377  0.74840155     0.15250
C1059       C  0.80560958  0.22222252  0.68776383     0.36900
C1060       C  0.67017067  0.19343620  0.74695411     0.36800
N1061       N  0.83313075  0.22760801  0.67606881    -0.43440
N1062       N  0.64227856  0.18773203  0.75809288    -0.43440
C1063       C  0.84633316  0.34016437  0.88241788     0.00140
C1064       C  0.82069499  0.34295739  0.86276349    -0.11730
C1065       C  0.79330555  0.31164197  0.84666998     0.02380
C1066       C  0.79134415  0.27676096  0.85000893     0.00060
C1067       C  0.81670348  0.27374969  0.86963728    -0.11670
C1068       C  0.84421005  0.30500106  0.88567379     0.02270
H1069       H  0.82165467  0.36954041  0.86024701     0.15250
H1070       H  0.81529566  0.24692182  0.87207233     0.15250
C1071       C  0.87062169  0.30020052  0.90421256     0.36900
C1072       C  0.76673912  0.31561517  0.82763565     0.36800
N1073       N  0.89181633  0.29623768  0.91892542    -0.43440
N1074       N  0.74530836  0.31863020  0.81243816    -0.43440
C1075       C  0.30878610  0.44583473  0.88448371     0.00140
C1076       C  0.27467715  0.43366275  0.89995386    -0.11730
C1077       C  0.24355014  0.43092793  0.88461193     0.02380
C1078       C  0.24644043  0.44192695  0.85303094     0.00060
C1079       C  0.28093580  0.45475712  0.83776866    -0.11670
C1080       C  0.31152778  0.45593755  0.85279362     0.02270
H1081       H  0.27195082  0.42568278  0.92424572     0.15250
H1082       H  0.28416596  0.46376331  0.81372639     0.15250
C1083       C  0.34454536  0.46585733  0.83446365     0.36900
C1084       C  0.20890728  0.41520521  0.90185584     0.36800
N1085       N  0.37073655  0.47334502  0.81955949    -0.43440
N1086       N  0.18143812  0.40280938  0.91606664    -0.43440
C1087       C  0.13009215  0.45166000  0.84882484     0.00140
C1088       C  0.11673524  0.43374205  0.87750897    -0.11730
C1089       C  0.08992024  0.43754958  0.89441293     0.02380
C1090       C  0.07521984  0.45947401  0.88243991     0.00060
C1091       C  0.08885707  0.47767404  0.85375003    -0.11670
C1092       C  0.11604585  0.47408106  0.83700184     0.02270
H1093       H  0.12712205  0.41624057  0.88671243     0.15250
H1094       H  0.07840243  0.49488151  0.84415855     0.15250
C1095       C  0.12968194  0.49458142  0.80826671     0.36900
C1096       C  0.07851972  0.41845174  0.92392162     0.36800
N1097       N  0.14043435  0.51088541  0.78516342    -0.43440
N1098       N  0.06987610  0.40287059  0.94747634    -0.43440
C1099       C  0.17869048  0.42600463  0.68595132     0.00140
C1100       C  0.21087813  0.45237352  0.70175080    -0.11730
C1101       C  0.21247851  0.45296041  0.73417911     0.02380
C1102       C  0.18112655  0.42694732  0.75157803     0.00060
C1103       C  0.14902873  0.40007969  0.73581140    -0.11670
C1104       C  0.14779141  0.39910044  0.70318955     0.02270
H1105       H  0.23464375  0.47316454  0.68865145     0.15250
H1106       H  0.12504052  0.37973546  0.74902561     0.15250
C1107       C  0.11537875  0.36926630  0.68801549     0.36900
C1108       C  0.24613260  0.48165451  0.74895434     0.36800
N1109       N  0.08954485  0.34485241  0.67608209    -0.43440
N1110       N  0.27317120  0.50451861  0.76077216    -0.43440
C1111       C  0.30792381  0.44715102  0.55196956     0.00140
C1112       C  0.31202504  0.46390721  0.58125245    -0.11730
C1113       C  0.28110436  0.45977353  0.59803291     0.02380
C1114       C  0.24446063  0.43775562  0.58587818     0.00060
C1115       C  0.24030767  0.42115221  0.55650297    -0.11670
C1116       C  0.27137722  0.42588081  0.53944338     0.02270
H1117       H  0.33957622  0.48061131  0.59130845     0.15250
H1118       H  0.21254668  0.40426028  0.54674082     0.15250
C1119       C  0.26439745  0.40896146  0.00897407     0.36900
C1120       C  0.28848490  0.47985269  0.62712413     0.36800
N1121       N  0.25803064  0.39519549  0.98459409    -0.43440
N1122       N  0.29497193  0.49599046  0.65044586    -0.43440
C1123       C  0.12573279  0.44518559  0.58615668     0.00140
C1124       C  0.13652914  0.46593291  0.55815092    -0.11730
C1125       C  0.11093089  0.47066717  0.54014310     0.02380
C1126       C  0.07426342  0.45707758  0.55097407     0.00060
C1127       C  0.06341572  0.43778079  0.57915248    -0.11670
C1128       C  0.08804850  0.43067982  0.59626214     0.02270
H1129       H  0.16509547  0.47867154  0.54992206     0.15250
H1130       H  0.03483011  0.42664801  0.58714588     0.15250
C1131       C  0.07234659  0.40675254  0.62298962     0.36900
C1132       C  0.12290688  0.48958918  0.51058220     0.36800
N1133       N  0.05875111  0.38778566  0.64441192    -0.43440
N1134       N  0.13231734  0.50440005  0.98674194    -0.43440
C1135       C  0.13223578  0.69288515  0.58307318     0.00140
C1136       C  0.10537971  0.69703116  0.56653374    -0.11730
C1137       C  0.07635744  0.66660878  0.55082236     0.02380
C1138       C  0.07395057  0.63119735  0.55173975     0.00060
C1139       C  0.10126926  0.62737765  0.56802693    -0.11670
C1140       C  0.13049441  0.65794993  0.58336265     0.02270
H1141       H  0.10684721  0.72401312  0.56628461     0.15250
H1142       H  0.10015331  0.60057615  0.56839883     0.15250
C1143       C  0.15908232  0.65318027  0.59831238     0.36900
C1144       C  0.04872618  0.67231524  0.53515385     0.36800
N1145       N  0.18219695  0.64933954  0.60989555    -0.43440
N1146       N  0.02660353  0.67697817  0.52265828    -0.43440
C1147       C  0.25251904  0.81468204  0.58318589     0.00140
C1148       C  0.28883127  0.82672201  0.59404293    -0.11730
C1149       C  0.32037762  0.85389035  0.57805111     0.02380
C1150       C  0.31604344  0.86953088  0.55011651     0.00060
C1151       C  0.27958455  0.85759183  0.53947213    -0.11670
C1152       C  0.24809590  0.83084080  0.55573112     0.02270
H1153       H  0.29264760  0.81442828  0.61499644     0.15250
H1154       H  0.27531684  0.86947862  0.51852695     0.15250
C1155       C  0.21159887  0.82152278  0.54418279     0.36900
C1156       C  0.35655638  0.86477129  0.59119899     0.36800
N1157       N  0.18237977  0.81399543  0.53484805    -0.43440
N1158       N  0.38524937  0.87325235  0.60226945    -0.43440
C1159       C  0.13253262  0.69221653  0.85071880     0.00140
C1160       C  0.12401184  0.69902547  0.88080563    -0.11730
C1161       C  0.09679019  0.67032642  0.89913279     0.02380
C1162       C  0.07561840  0.63360843  0.88684715     0.00060
C1163       C  0.08449770  0.62666670  0.85683964    -0.11670
C1164       C  0.11287762  0.65520007  0.83901664     0.02270
H1165       H  0.13890510  0.72714880  0.89027095     0.15250
H1166       H  0.06939486  0.59862955  0.84718045     0.15250
C1167       C  0.12206629  0.64510153  0.80946354     0.36900
C1168       C  0.09310736  0.67995441  0.93071415     0.36800
N1169       N  0.12923902  0.63678648  0.78579597    -0.43440
N1170       N  0.09124525  0.68863310  0.95599575    -0.43440
C1171       C  0.18598187  0.75756478  0.68407112     0.00140
C1172       C  0.19202730  0.79015844  0.69965273    -0.11730
C1173       C  0.19121387  0.79160333  0.73229513     0.02380
C1174       C  0.18427962  0.75995699  0.74999452     0.00060
C1175       C  0.17803871  0.72745348  0.73437332    -0.11670
C1176       C  0.17894369  0.72597011  0.70195107     0.02270
H1177       H  0.19709411  0.81448470  0.68626462     0.15250
H1178       H  0.17356220  0.70326994  0.74768508     0.15250
C1179       C  0.17417722  0.69200392  0.68800974     0.36900
C1180       C  0.19675360  0.82551933  0.74693236     0.36800
N1181       N  0.17006907  0.66444510  0.67732766    -0.43440
N1182       N  0.20133736  0.85277787  0.75864179    -0.43440
C1183       C  0.25595143  0.81267571  0.84935173     0.00140
C1184       C  0.29046992  0.83032717  0.83368525    -0.11730
C1185       C  0.32267007  0.85939633  0.84742379     0.02380
C1186       C  0.32168741  0.86992064  0.87866354     0.00060
C1187       C  0.28732253  0.85209771  0.89450916    -0.11670
C1188       C  0.25459628  0.82446484  0.88011848     0.02270
H1189       H  0.29239537  0.82187502  0.81017114     0.15250
H1190       H  0.28574591  0.86029894  0.91821719     0.15250
C1191       C  0.21999370  0.81039966  0.89720080     0.36900
C1192       C  0.35503030  0.87921945  0.82766259     0.36800
N1193       N  0.19247585  0.79931813  0.91116747    -0.43440
N1194       N  0.38035683  0.89499182  0.81113626    -0.43440
C1195       C  0.49471792  0.68655995  0.85112995     0.00140
C1196       C  0.47722153  0.65189072  0.83557849    -0.11730
C1197       C  0.47354295  0.61954660  0.84920165     0.02380
C1198       C  0.48504750  0.62046158  0.88032619     0.00060
C1199       C  0.50253177  0.65504916  0.89604968    -0.11670
C1200       C  0.50820601  0.68796956  0.88166959     0.02270
H1201       H  0.46659058  0.64987936  0.81219919     0.15250
H1202       H  0.51249901  0.65661748  0.91965119     0.15250
C1203       C  0.52951147  0.72274569  0.89843291     0.36900
C1204       C  0.46031988  0.58704818  0.82943319     0.36800
N1205       N  0.54653476  0.75052195  0.91201130    -0.43440
N1206       N  0.45025163  0.56165499  0.81284997    -0.43440
C1207       C  0.49310072  0.80786868  0.85006149     0.00140
C1208       C  0.46339127  0.79861924  0.87083889    -0.11730
C1209       C  0.46136394  0.82645115  0.88800468     0.02380
C1210       C  0.48939527  0.86414010  0.88452326     0.00060
C1211       C  0.51896948  0.87356706  0.86382079    -0.11670
C1212       C  0.52112490  0.84586155  0.84664813     0.02270
H1213       H  0.44172113  0.76960600  0.87362152     0.15250
H1214       H  0.54063415  0.90264504  0.86131635     0.15250
C1215       C  0.55316194  0.85707300  0.82667739     0.36900
C1216       C  0.43050210  0.81580946  0.90919856     0.36800
N1217       N  0.57879196  0.86605722  0.81062855    -0.43440
N1218       N  0.40582109  0.80738598  0.92622580    -0.43440
C1219       C  0.49377447  0.68643138  0.58379565     0.00140
C1220       C  0.45817328  0.65675598  0.57609718    -0.11730
C1221       C  0.45416396  0.62582569  0.55932149     0.02380
C1222       C  0.48621530  0.62486042  0.54940207     0.00060
C1223       C  0.52184142  0.65467970  0.55693958    -0.11670
C1224       C  0.52581502  0.68513778  0.57444501     0.02270
H1225       H  0.43351185  0.65780279  0.58324304     0.15250
H1226       H  0.54655487  0.65383350  0.54961869     0.15250
C1227       C  0.56289569  0.71471689  0.58258820     0.36900
C1228       C  0.41700413  0.59603282  0.55161761     0.36800
N1229       N  0.59257854  0.73835625  0.58929492    -0.43440
N1230       N  0.38726581  0.57214590  0.54535649    -0.43440
C1231       C  0.48662137  0.86271853  0.55090879     0.00140
C1232       C  0.46281049  0.84503756  0.57637391    -0.11730
C1233       C  0.46414682  0.81652164  0.59283166     0.02380
C1234       C  0.48995397  0.80521683  0.58408970     0.00060
C1235       C  0.51309015  0.82208413  0.55823609    -0.11670
C1236       C  0.51161748  0.85038782  0.54157521     0.02270
H1237       H  0.44281260  0.85324075  0.58356179     0.15250
H1238       H  0.53288683  0.81343094  0.55126494     0.15250
C1239       C  0.53649972  0.86616707  0.51530128     0.36900
C1240       C  0.43788290  0.79857041  0.61794620     0.36800
N1241       N  0.55653588  0.87853733  0.99426613    -0.43440
N1242       N  0.41683916  0.78423033  0.63807760    -0.43440
C1243       C  0.50547052  0.75230237  0.68444149     0.00140
C1244       C  0.48119397  0.71946732  0.70065051    -0.11730
C1245       C  0.48045575  0.71856939  0.73313615     0.02380
C1246       C  0.50463884  0.75109617  0.75033823     0.00060
C1247       C  0.52916262  0.78396634  0.73420440    -0.11670
C1248       C  0.52986692  0.78483116  0.70157614     0.02270
H1249       H  0.46182957  0.69452397  0.68782527     0.15250
H1250       H  0.54798100  0.80901491  0.74716761     0.15250
C1251       C  0.55642739  0.81918791  0.68639756     0.36900
C1252       C  0.45317402  0.68428408  0.74801760     0.36800
N1253       N  0.57761126  0.84682339  0.67429329    -0.43440
N1254       N  0.43124665  0.65666545  0.75969501    -0.43440
loop_ 
_geom_bond_atom_site_label_1 
_geom_bond_atom_site_label_2 
_geom_bond_distance 
_geom_bond_site_symmetry_2 
_ccdc_geom_bond_type 
C1            C2   1.400       .  A
C1            C6   1.399       .  A
C1          C592   1.475       .  S
C2            C3   1.406       .  A
C2            H7   1.084       .  S
C3            C4   1.406       .  A
C3          C616   1.488       .  S
C4            C5   1.405       .  A
C4            H8   1.083       .  S
C5            C6   1.403       .  A
C5          C607   1.485       .  S
C6            H9   1.084       .  S
C10          C11   1.408       .  A
C10          C15   1.408       .  A
C10         C568   1.499       .  S
C11          C12   1.402       .  A
C11          H16   1.083       .  S
C12          C13   1.402       .  A
C12         C619   1.487       .  S
C13          C14   1.404       .  A
C13          H17   1.084       .  S
C14          C15   1.405       .  A
C14         C580   1.486       .  S
C15          H18   1.081       .  S
C19          C20   1.409       .  A
C19          C24   1.406       .  A
C19         C556   1.499       .  S
C20          C21   1.403       .  A
C20          H25   1.082       .  S
C21          C22   1.404       .  A
C21         C547   1.489       .  S
C22          C23   1.404       .  A
C22          H26   1.083       .  S
C23          C24   1.407       .  A
C23         C532   1.494       .  S
C24          H27   1.082       .  S
C28          C29   1.410       .  A
C28          C33   1.404       .  A
C28         C520   1.491       .  S
C29          C30   1.409       .  A
C29          H34   1.084       .  S
C30          C31   1.404       .  A
C30         C544   1.491       .  S
C31          C32   1.398       .  A
C31          H35   1.084       .  S
C32          C33   1.397       .  A
C32         C508   1.473       .  S
C33          H36   1.083       .  S
C37          C38   1.417       .  A
C37          C42   1.412       .  A
C37         C496   1.513       .  S
C38          C39   1.409       .  A
C38          H43   1.080       .  S
C39          C40   1.400       .  A
C39         C487   1.497       .  S
C40          C41   1.398       .  A
C40          H44   1.084       .  S
C41          C42   1.403       .  A
C41         C472   1.481       .  S
C42          H45   1.080       .  S
C46          C47   1.403       .  A
C46          C51   1.405       .  A
C46         C460   1.487       .  S
C47          C48   1.400       .  A
C47          H52   1.083       .  S
C48          C49   1.402       .  A
C48         C475   1.482       .  S
C49          C50   1.407       .  A
C49          H53   1.083       .  S
C50          C51   1.406       .  A
C50         C451   1.498       .  S
C51          H54   1.082       .  S
C55          C56   1.403       .  A
C55          C60   1.401       .  A
C55         C439   1.477       .  S
C56          C57   1.405       .  A
C56          H61   1.084       .  S
C57          C58   1.405       .  A
C57         C427   1.486       .  S
C58          C59   1.401       .  A
C58          H62   1.084       .  S
C59          C60   1.399       .  A
C59         C415   1.474       .  S
C60          H63   1.084       .  S
C64          C65   1.402       .  A
C64          C69   1.402       .  A
C64         C400   1.476       .  S
C65          C66   1.405       .  A
C65          H70   1.084       .  S
C66          C67   1.405       .  A
C66         C424   1.486       .  S
C67          C68   1.403       .  A
C67          H71   1.084       .  S
C68          C69   1.403       .  A
C68         C388   1.487       .  S
C69          H72   1.084       .  S
C73          C74   1.404       .  A
C73          C78   1.404       .  A
C73         C355   1.480       .  S
C74          C75   1.402       .  A
C74          H79   1.084       .  S
C75          C76   1.401       .  A
C75         C367   1.476       .  S
C76          C77   1.400       .  A
C76          H80   1.085       .  S
C77          C78   1.401       .  A
C77         C376   1.477       .  S
C78          H81   1.084       .  S
C82          C83   1.404       .  A
C82          C87   1.408       .  A
C82         C328   1.495       .  S
C83          C84   1.399       .  A
C83          H88   1.082       .  S
C84          C85   1.402       .  A
C84         C364   1.477       .  S
C85          C86   1.406       .  A
C85          H89   1.081       .  S
C86          C87   1.410       .  A
C86         C343   1.501       .  S
C87          H90   1.082       .  S
C91          C92   1.401       .  A
C91          C96   1.400       .  A
C91         C316   1.482       .  S
C92          C93   1.406       .  A
C92          H97   1.083       .  S
C93          C94   1.409       .  A
C93         C304   1.492       .  S
C94          C95   1.405       .  A
C94          H98   1.083       .  S
C95          C96   1.403       .  A
C95         C292   1.485       .  S
C96          H99   1.084       .  S
C100        C101   1.403       .  A
C100        C105   1.408       .  A
C100        C283   1.493       .  S
C101        C102   1.402       .  A
C101        H106   1.083       .  S
C102        C103   1.402       .  A
C102        C295   1.486       .  S
C103        C104   1.409       .  A
C103        H107   1.083       .  S
C104        C105   1.409       .  A
C104        C268   1.498       .  S
C105        H108   1.081       .  S
C109        C146   1.466       .  S
C109        C571   1.490       .  S
C109        N127   1.353       .  A
N110        N127   1.324       .  A
N110        N132   1.317       .  A
N110       Co147   2.080       .  S
C111        C149   1.466       .  S
C111        H156   1.081       .  S
C111        N136   1.340       .  A
H112        C153   1.079       .  S
C113        C117   1.469       .  S
C113        H142   1.081       .  S
C113        N137   1.342       .  A
Co114       N132   2.082       .  S
Co114       N122   2.079       .  S
Co114       N154   2.083       .  S
Co114       N130   2.083       .  S
Co114      Cl158   2.445       .  S
N115        C153   1.339       .  A
N115        N122   1.318       .  A
N115       Co116   2.081       .  S
Co116       N136   2.082       .  S
Co116       N746   2.080       .  S
Co116       N750   2.086       .  S
Co116      Cl158   2.455       .  S
C117        C484   1.493       .  S
C117        N155   1.350       .  A
N118        N125   1.321   1_554  A
N118        N148   1.325       .  A
N118       Co151   2.088       .  S
N119        N137   1.319       .  A
N119        N155   1.324       .  A
N119       Co743   2.080   1_554  S
N120        C149   1.351       .  A
N120        N130   1.323       .  A
H121        C146   1.078       .  S
N122        N143   1.323       .  A
N123        N141   1.318       .  A
N123        N128   1.324       .  A
N123       Co743   2.086   1_554  S
C124        C152   1.468       .  S
C124        C271   1.495       .  S
C124        N128   1.353       .  A
N125        C140   1.340   1_556  A
N125       Co774   2.082       .  S
C126        C129   1.464       .  S
C126        H160   1.081       .  S
C126        N154   1.340       .  A
C129        C331   1.489       .  S
C129        N150   1.352       .  A
N130        N136   1.319       .  A
N131        C157   1.335   1_556  A
N131        N133   1.319   1_556  A
N131       Co774   2.070       .  S
N132        C146   1.337       .  A
N133        N161   1.327       .  A
N133       Co151   2.099       .  S
H134        C784   1.080       .  S
H135        C152   1.077       .  S
N137       Co151   2.094       .  S
N138        N150   1.324       .  A
N138        N154   1.319       .  A
N138       Co147   2.085       .  S
C139        C153   1.462       .  S
C139        C448   1.486       .  S
C139        N143   1.350       .  A
C140        C159   1.457       .  S
C140        H771   1.082   1_554  S
N141        C152   1.339       .  A
N141       Co151   2.086       .  S
H144        C767   1.082       .  S
C145        C157   1.458       .  S
C145        C352   1.488       .  S
C145        N161   1.355       .  A
Co147       N752   2.082       .  S
Co147       N758   2.070       .  S
Co147      Cl158   2.456       .  S
N148        C159   1.349       .  A
C149        C307   1.491       .  S
Co151      Cl785   2.446   1_554  S
C157        H761   1.080   1_554  S
Cl158      Co778   2.446       .  S
C159        C595   1.473       .  S
C162        C199   1.461       .  S
C162        C511   1.479       .  S
C162        N180   1.348       .  A
N163        N180   1.323   1_655  A
N163        N185   1.320       .  A
N163       Co827   2.077   1_554  S
C164        C202   1.459       .  S
C164        H836   1.082   1_554  S
C164        N189   1.339   1_554  A
H165        C833   1.080       .  S
C166        C170   1.466       .  S
C166        H195   1.081       .  S
C166        N190   1.341   1_455  A
Co167       N185   2.085       .  S
Co167       N175   2.090       .  S
Co167       N207   2.091       .  S
Co167       N183   2.089       .  S
Co167      Cl838   2.456   1_554  S
N168        C206   1.340   1_556  A
N168        N175   1.320   1_456  A
N168       Co796   2.082   1_455  S
Co169       N172   2.079   1_655  S
Co169       N176   2.082       .  S
Co169       N795   2.082   1_655  S
Co169       N816   2.082       .  S
Co169      Cl211   2.443       .  S
C170        C463   1.489       .  S
C170        N208   1.350       .  A
N171        N178   1.317       .  A
N171        N201   1.325   1_655  A
N171       Co204   2.091       .  S
N172        N190   1.318   1_455  A
N172        N208   1.322       .  A
N173        C202   1.352       .  A
N173        N183   1.326       .  A
H174        C199   1.081       .  S
N175        N196   1.326   1_655  A
N176        N194   1.320       .  A
N176        N181   1.323       .  A
C177        C205   1.464       .  S
C177        C436   1.484       .  S
C177        N181   1.349       .  A
N178        C193   1.336   1_655  A
N178       Co200   2.073       .  S
C179        C182   1.467       .  S
C179        H213   1.081       .  S
C179        N207   1.343       .  A
C182        C379   1.486       .  S
C182        N203   1.347       .  A
N183        N189   1.320   1_554  A
N184        C210   1.336       .  A
N184        N186   1.318       .  A
N184       Co200   2.072       .  S
N185        C199   1.340   1_655  A
N186        N214   1.325       .  A
N186       Co204   2.092       .  S
H187        C210   1.079       .  S
H188        C205   1.081       .  S
N189       Co796   2.082       .  S
N190       Co204   2.084       .  S
N191        N203   1.321       .  A
N191        N207   1.319       .  A
N191       Co827   2.073   1_554  S
C192        C206   1.456       .  S
C192        C499   1.475       .  S
C192        N196   1.350       .  A
C193        C212   1.465       .  S
C193        H197   1.077       .  S
N194        C205   1.342       .  A
N194       Co204   2.087       .  S
C198        C210   1.462       .  S
C198        C340   1.489       .  S
C198        N214   1.355       .  A
Co200       N790   2.077       .  S
Co200       N818   2.073       .  S
Co200      Cl211   2.445       .  S
N201        C212   1.355       .  A
C202        C403   1.481       .  S
Co204      Cl211   2.456       .  S
C206        H792   1.080   1_554  S
H209        C791   1.082       .  S
Cl211      Co794   2.456       .  S
C212        C535   1.493       .  S
C215        C252   1.465       .  S
C215        C604   1.489       .  S
C215        N233   1.350       .  A
N216        N233   1.323       .  A
N216        N238   1.318       .  A
N216       Co880   2.079   1_554  S
C217        C255   1.454       .  S
C217        H889   1.082   1_554  S
C217        N242   1.339   1_554  A
H218        C886   1.081       .  S
C219        C223   1.462       .  S
C219        H248   1.078       .  S
C219        N243   1.336       .  A
Co220       N238   2.084       .  S
Co220       N228   2.085       .  S
Co220       N260   2.089   1_565  S
Co220       N236   2.089   1_565  S
Co220      Cl891   2.452   1_554  S
N221        C259   1.341   1_556  A
N221        N228   1.319   1_556  A
N221       Co849   2.088       .  S
Co222       N225   2.088       .  S
Co222       N229   2.080   1_565  S
Co222       N848   2.088       .  S
Co222       N869   2.081   1_565  S
Co222      Cl264   2.453       .  S
C223        C559   1.490       .  S
C223        N261   1.355       .  A
N224        N231   1.320       .  A
N224        N254   1.324       .  A
N224       Co257   2.083       .  S
N225        N243   1.318       .  A
N225        N261   1.325       .  A
N226        C255   1.350       .  A
N226        N236   1.326       .  A
H227        C252   1.080       .  S
N228        N249   1.324       .  A
N229        N247   1.320       .  A
N229        N234   1.323       .  A
C230        C258   1.459       .  S
C230        C319   1.468       .  S
C230        N234   1.347       .  A
N231        C246   1.341       .  A
N231       Co253   2.082       .  S
C232        C235   1.468       .  S
C232        H266   1.081       .  S
C232        N260   1.341       .  A
C235        C391   1.492       .  S
C235        N256   1.350       .  A
N236        N242   1.321   1_554  A
N237        C263   1.338       .  A
N237        N239   1.319       .  A
N237       Co253   2.077   1_545  S
N238        C252   1.340       .  A
N239        N267   1.325       .  A
N239       Co257   2.085   1_545  S
H240        C263   1.080       .  S
H241        C258   1.081       .  S
N242       Co849   2.081   1_545  S
N243       Co257   2.077       .  S
N244        N256   1.323       .  A
N244        N260   1.319       .  A
N244       Co880   2.081   1_544  S
C245        C259   1.468       .  S
C245        C523   1.493       .  S
C245        N249   1.351       .  A
C246        C265   1.456       .  S
C246        H250   1.081       .  S
N247        C258   1.342       .  A
N247       Co257   2.086   1_545  S
C251        C263   1.458       .  S
C251        C412   1.478       .  S
C251        N267   1.351       .  A
Co253       N843   2.079       .  S
Co253       N871   2.081   1_565  S
Co253      Cl264   2.451       .  S
N254        C265   1.347       .  A
C255        C280   1.470       .  S
Co257      Cl264   2.446       .  S
C259        H845   1.081   1_554  S
H262        C844   1.082       .  S
Cl264      Co847   2.452       .  S
C265        C583   1.468       .  S
C268        C269   1.406       .  A
C268        C273   1.415       .  A
C269        C270   1.399       .  A
C269        H274   1.084       .  S
C270        C271   1.417       .  A
C270        C277   1.442       .  S
C271        C272   1.408       .  A
C272        C273   1.403       .  A
C272        H275   1.085       .  S
C273        C276   1.444       .  S
C276        N278   1.157       .  T
C277        N279   1.158       .  T
C280        C281   1.399       .  A
C280        C285   1.406       .  A
C281        C282   1.401       .  A
C281        H286   1.085       .  S
C282        C283   1.418       .  A
C282        C289   1.444       .  S
C283        C284   1.408       .  A
C284        C285   1.401       .  A
C284        H287   1.084       .  S
C285        C288   1.444       .  S
C288        N917   1.157       .  T
C289        N291   1.157       .  T
N290        C915   1.157       .  T
C292        C293   1.403       .  A
C292        C297   1.413       .  A
C293        C294   1.397       .  A
C293        H298   1.085       .  S
C294        C295   1.413       .  A
C294        C301   1.445       .  S
C295        C296   1.406       .  A
C296        C297   1.404       .  A
C296        H299   1.085       .  S
C297        C300   1.444       .  S
C300        N302   1.157       .  T
C301        N303   1.157       .  T
C304        C305   1.405       .  A
C304        C309   1.415       .  A
C305        C306   1.401       .  A
C305        H310   1.085       .  S
C306        C307   1.418       .  A
C306        C313   1.444       .  S
C307        C308   1.406       .  A
C308        C309   1.400       .  A
C308        H311   1.083       .  S
C309        C312   1.445       .  S
C312        N314   1.157       .  T
C313        N315   1.158       .  T
C316        C317   1.406       .  A
C316        C321   1.413       .  A
C317        C318   1.401       .  A
C317        H322   1.085       .  S
C318        C319   1.407       .  A
C318        C325   1.444       .  S
C319        C320   1.401       .  A
C320        C321   1.400       .  A
C320        H323   1.085       .  S
C321        C324   1.444       .  S
C324        N326   1.157       .  T
C325        N327   1.157       .  T
C328        C329   1.406       .  A
C328        C333   1.416       .  A
C329        C330   1.400       .  A
C329        H334   1.085       .  S
C330        C331   1.414       .  A
C330        C337   1.444       .  S
C331        C332   1.406       .  A
C332        C333   1.401       .  A
C332        H335   1.083       .  S
C333        C336   1.444       .  S
C336        N338   1.157       .  T
C337        N339   1.157       .  T
C340        C341   1.404       .  A
C340        C345   1.415       .  A
C341        C342   1.401       .  A
C341        H346   1.085       .  S
C342        C343   1.419       .  A
C342        C349   1.443       .  S
C343        C344   1.408       .  A
C344        C345   1.399       .  A
C344        H347   1.084       .  S
C345        C348   1.443       .  S
C348        N350   1.157       .  T
C349        N351   1.157       .  T
C352        C353   1.408       .  A
C352        C357   1.414       .  A
C353        C354   1.399       .  A
C353        H358   1.083       .  S
C354        C355   1.408       .  A
C354        C361   1.445       .  S
C355        C356   1.402       .  A
C356        C357   1.401       .  A
C356        H359   1.085       .  S
C357        C360   1.441       .  S
C360        N362   1.156       .  T
C361        N363   1.157       .  T
C364        C365   1.404       .  A
C364        C369   1.411       .  A
C365        C366   1.404       .  A
C365        H370   1.084       .  S
C366        C367   1.412       .  A
C366        C373   1.443       .  S
C367        C368   1.400       .  A
C368        C369   1.394       .  A
C368        H371   1.085       .  S
C369        C372   1.444       .  S
C372        N374   1.157       .  T
C373        N375   1.157       .  T
C376        C377   1.399       .  A
C376        C381   1.409       .  A
C377        C378   1.400       .  A
C377        H382   1.085       .  S
C378        C379   1.419       .  A
C378        C385   1.444       .  S
C379        C380   1.404       .  A
C380        C381   1.399       .  A
C380        H383   1.080       .  S
C381        C384   1.444       .  S
C384        N386   1.157       .  T
C385        N387   1.157       .  T
C388        C389   1.402       .  A
C388        C393   1.413       .  A
C389        C390   1.402       .  A
C389        H394   1.085       .  S
C390        C391   1.419       .  A
C390        C397   1.444       .  S
C391        C392   1.406       .  A
C392        C393   1.399       .  A
C392        H395   1.082       .  S
C393        C396   1.445       .  S
C396        N398   1.157       .  T
C397       N1026   1.157   1_554  T
N399       C1024   1.157       .  T
C400        C401   1.401       .  A
C400        C405   1.408       .  A
C401        C402   1.401       .  A
C401        H406   1.085       .  S
C402        C403   1.412       .  A
C402        C409   1.442       .  S
C403        C404   1.406       .  A
C404        C405   1.400       .  A
C404        H407   1.084       .  S
C405        C408   1.444       .  S
C408        N410   1.157       .  T
C409        N411   1.156       .  T
C412        C413   1.403       .  A
C412        C417   1.416       .  A
C413        C414   1.399       .  A
C413        H418   1.085       .  S
C414        C415   1.409       .  A
C414        C421   1.444       .  S
C415        C416   1.400       .  A
C416        C417   1.401       .  A
C416        H419   1.085       .  S
C417        C420   1.444       .  S
C420        N422   1.157       .  T
C421        N423   1.157       .  T
C424        C425   1.404       .  A
C424        C429   1.413       .  A
C425        C426   1.397       .  A
C425        H430   1.084       .  S
C426        C427   1.413       .  A
C426        C433   1.444       .  S
C427        C428   1.406       .  A
C428        C429   1.403       .  A
C428        H431   1.085       .  S
C429        C432   1.444       .  S
C432        N434   1.157       .  T
C433        N435   1.157       .  T
C436        C437   1.405       .  A
C436        C441   1.417       .  A
C437        C438   1.401       .  A
C437        H442   1.084       .  S
C438        C439   1.409       .  A
C438        C445   1.444       .  S
C439        C440   1.400       .  A
C440        C441   1.400       .  A
C440        H443   1.085       .  S
C441        C444   1.444       .  S
C444        N446   1.157       .  T
C445        N447   1.157       .  T
C448        C449   1.403       .  A
C448        C453   1.414       .  A
C449        C450   1.399       .  A
C449        H454   1.085       .  S
C450        C451   1.419       .  A
C450        C457   1.444       .  S
C451        C452   1.408       .  A
C452        C453   1.399       .  A
C452        H455   1.085       .  S
C453        C456   1.444       .  S
C456        N458   1.157       .  T
C457        N459   1.157       .  T
C460        C461   1.402       .  A
C460        C465   1.412       .  A
C461        C462   1.397       .  A
C461        H466   1.084       .  S
C462        C463   1.417       .  A
C462        C469   1.444       .  S
C463        C464   1.408       .  A
C464        C465   1.402       .  A
C464        H467   1.082       .  S
C465        C468   1.444       .  S
C468        N470   1.157       .  T
C469        N471   1.157       .  T
C472        C473   1.401       .  A
C472        C477   1.411       .  A
C473        C474   1.395       .  A
C473        H478   1.083       .  S
C474        C475   1.413       .  A
C474        C481   1.445       .  S
C475        C476   1.405       .  A
C476        C477   1.403       .  A
C476        H479   1.085       .  S
C477        C480   1.443       .  S
C480        N482   1.157       .  T
C481        N483   1.157       .  T
C484        C485   1.404       .  A
C484        C489   1.418       .  A
C485        C486   1.400       .  A
C485        H490   1.082       .  S
C486        C487   1.418       .  A
C486        C493   1.444       .  S
C487        C488   1.404       .  A
C488        C489   1.403       .  A
C488        H491   1.084       .  S
C489       C1119   1.443       .  S
C492       C1116   1.443       .  S
C492        N494   1.157       .  T
C493        N495   1.157       .  T
C496        C497   1.415       .  A
C496        C501   1.426       .  A
C497        C498   1.402       .  A
C497        H502   1.082       .  S
C498        C499   1.404       .  A
C498        C505   1.444       .  S
C499        C500   1.396       .  A
C500        C501   1.402       .  A
C500        H503   1.086       .  S
C501        C504   1.442       .  S
C504        N506   1.157       .  T
C505       N1134   1.157   1_554  T
N507       C1132   1.157       .  T
C508        C509   1.400       .  A
C508        C513   1.408       .  A
C509        C510   1.400       .  A
C509        H514   1.085       .  S
C510        C511   1.416       .  A
C510        C517   1.444       .  S
C511        C512   1.404       .  A
C512        C513   1.399       .  A
C512        H515   1.084       .  S
C513        C516   1.443       .  S
C516        N518   1.157       .  T
C517        N519   1.157       .  T
C520        C521   1.403       .  A
C520        C525   1.414       .  A
C521        C522   1.402       .  A
C521        H526   1.085       .  S
C522        C523   1.419       .  A
C522        C529   1.443       .  S
C523        C524   1.406       .  A
C524        C525   1.400       .  A
C524        H527   1.083       .  S
C525        C528   1.445       .  S
C528        N530   1.157       .  T
C529        N531   1.157       .  T
C532        C533   1.404       .  A
C532        C537   1.415       .  A
C533        C534   1.399       .  A
C533        H538   1.084       .  S
C534        C535   1.418       .  A
C534        C541   1.443       .  S
C535        C536   1.408       .  A
C536        C537   1.402       .  A
C536        H539   1.084       .  S
C537        C540   1.444       .  S
C540        N542   1.157       .  T
C541        N543   1.158       .  T
C544        C545   1.407       .  A
C544        C549   1.415       .  A
C545        C546   1.405       .  A
C545        H550   1.085       .  S
C546        C547   1.414       .  A
C546        C553   1.443       .  S
C547        C548   1.403       .  A
C548        C549   1.396       .  A
C548        H551   1.085       .  S
C549        C552   1.443       .  S
C552        N554   1.157       .  T
C553        N555   1.157       .  T
C556        C557   1.405       .  A
C556        C561   1.419       .  A
C557        C558   1.399       .  A
C557        H562   1.084       .  S
C558        C559   1.417       .  A
C558        C565   1.443       .  S
C559        C560   1.404       .  A
C560        C561   1.402       .  A
C560        H563   1.085       .  S
C561        C564   1.444       .  S
C564        N566   1.157       .  T
C565        N567   1.158       .  T
C568        C569   1.406       .  A
C568        C573   1.417       .  A
C569        C570   1.397       .  A
C569        H574   1.084       .  S
C570        C571   1.415       .  A
C570        C577   1.443       .  S
C571        C572   1.407       .  A
C572        C573   1.404       .  A
C572        H575   1.085       .  S
C573        C576   1.444       .  S
C576        N578   1.157       .  T
C577        N579   1.158       .  T
C580        C581   1.406       .  A
C580        C585   1.415       .  A
C581        C582   1.401       .  A
C581        H586   1.085       .  S
C582        C583   1.407       .  A
C582        C589   1.444       .  S
C583        C584   1.399       .  A
C584        C585   1.399       .  A
C584        H587   1.085       .  S
C585        C588   1.444       .  S
C588        N590   1.157       .  T
C589        N591   1.157       .  T
C592        C593   1.402       .  A
C592        C597   1.409       .  A
C593        C594   1.401       .  A
C593        H598   1.085       .  S
C594        C595   1.410       .  A
C594        C601   1.444       .  S
C595        C596   1.404       .  A
C596        C597   1.401       .  A
C596        H599   1.085       .  S
C597        C600   1.444       .  S
C600        N602   1.157       .  T
C601        N603   1.157       .  T
C604        C605   1.407       .  A
C604        C609   1.418       .  A
C605        C606   1.400       .  A
C605        H610   1.082       .  S
C606        C607   1.411       .  A
C606        C613   1.444       .  S
C607        C608   1.402       .  A
C608        C609   1.400       .  A
C608        H611   1.085       .  S
C609        C612   1.444       .  S
C612       N1241   1.157   1_554  T
C613        N615   1.157       .  T
N614       C1239   1.157       .  T
C616        C617   1.403       .  A
C616        C621   1.415       .  A
C617        C618   1.397       .  A
C617        H622   1.085       .  S
C618        C619   1.414       .  A
C618        C625   1.445       .  S
C619        C620   1.405       .  A
C620        C621   1.403       .  A
C620        H623   1.085       .  S
C621        C624   1.444       .  S
C624        N626   1.157       .  T
C625        N627   1.157       .  T
C628        C629   1.400       .  A
C628        C633   1.399       .  A
C628       C1219   1.475       .  S
C629        C630   1.406       .  A
C629        H634   1.084       .  S
C630        C631   1.406       .  A
C630       C1243   1.488       .  S
C631        C632   1.405       .  A
C631        H635   1.083       .  S
C632        C633   1.403       .  A
C632       C1234   1.485       .  S
C633        H636   1.084       .  S
C637        C638   1.408       .  A
C637        C642   1.408       .  A
C637       C1195   1.499       .  S
C638        C639   1.402       .  A
C638        H643   1.083       .  S
C639        C640   1.402       .  A
C639       C1246   1.487       .  S
C640        C641   1.404       .  A
C640        H644   1.084       .  S
C641        C642   1.405       .  A
C641       C1207   1.486       .  S
C642        H645   1.081       .  S
C646        C647   1.409       .  A
C646        C651   1.406       .  A
C646       C1183   1.499       .  S
C647        C648   1.403       .  A
C647        H652   1.082       .  S
C648        C649   1.404       .  A
C648       C1174   1.489       .  S
C649        C650   1.404       .  A
C649        H653   1.083       .  S
C650        C651   1.407       .  A
C650       C1159   1.494       .  S
C651        H654   1.082       .  S
C655        C656   1.410       .  A
C655        C660   1.404       .  A
C655       C1147   1.491       .  S
C656        C657   1.409       .  A
C656        H661   1.084       .  S
C657        C658   1.404       .  A
C657       C1171   1.491       .  S
C658        C659   1.398       .  A
C658        H662   1.084       .  S
C659        C660   1.397       .  A
C659       C1135   1.473       .  S
C660        H663   1.083       .  S
C664        C665   1.417       .  A
C664        C669   1.412       .  A
C664       C1123   1.513       .  S
C665        C666   1.409       .  A
C665        H670   1.080       .  S
C666        C667   1.400       .  A
C666       C1114   1.497       .  S
C667        C668   1.398       .  A
C667        H671   1.084       .  S
C668        C669   1.403       .  A
C668       C1099   1.481       .  S
C669        H672   1.080       .  S
C673        C674   1.403       .  A
C673        C678   1.405       .  A
C673       C1087   1.487       .  S
C674        C675   1.400       .  A
C674        H679   1.083       .  S
C675        C676   1.402       .  A
C675       C1102   1.482       .  S
C676        C677   1.407       .  A
C676        H680   1.083       .  S
C677        C678   1.406       .  A
C677       C1078   1.498       .  S
C678        H681   1.082       .  S
C682        C683   1.403       .  A
C682        C687   1.401       .  A
C682       C1066   1.477       .  S
C683        C684   1.405       .  A
C683        H688   1.084       .  S
C684        C685   1.405       .  A
C684       C1054   1.486       .  S
C685        C686   1.401       .  A
C685        H689   1.084       .  S
C686        C687   1.399       .  A
C686       C1042   1.474       .  S
C687        H690   1.084       .  S
C691        C692   1.402       .  A
C691        C696   1.402       .  A
C691       C1027   1.476       .  S
C692        C693   1.405       .  A
C692        H697   1.084       .  S
C693        C694   1.405       .  A
C693       C1051   1.486       .  S
C694        C695   1.403       .  A
C694        H698   1.084       .  S
C695        C696   1.403       .  A
C695       C1015   1.487       .  S
C696        H699   1.084       .  S
C700        C701   1.404       .  A
C700        C705   1.404       .  A
C700        C982   1.480       .  S
C701        C702   1.402       .  A
C701        H706   1.084       .  S
C702        C703   1.401       .  A
C702        C994   1.476       .  S
C703        C704   1.400       .  A
C703        H707   1.085       .  S
C704        C705   1.401       .  A
C704       C1003   1.477       .  S
C705        H708   1.084       .  S
C709        C710   1.404       .  A
C709        C714   1.408       .  A
C709        C955   1.495       .  S
C710        C711   1.399       .  A
C710        H715   1.082       .  S
C711        C712   1.402       .  A
C711        C991   1.477       .  S
C712        C713   1.406       .  A
C712        H716   1.081       .  S
C713        C714   1.410       .  A
C713        C970   1.501       .  S
C714        H717   1.082       .  S
C718        C719   1.401       .  A
C718        C723   1.400       .  A
C718        C943   1.482       .  S
C719        C720   1.406       .  A
C719        H724   1.083       .  S
C720        C721   1.409       .  A
C720        C931   1.492       .  S
C721        C722   1.405       .  A
C721        H725   1.083       .  S
C722        C723   1.403       .  A
C722        C919   1.485       .  S
C723        H726   1.084       .  S
C727        C728   1.403       .  A
C727        C732   1.408       .  A
C727        C910   1.493       .  S
C728        C729   1.402       .  A
C728        H733   1.083       .  S
C729        C730   1.402       .  A
C729        C922   1.486       .  S
C730        C731   1.409       .  A
C730        H734   1.083       .  S
C731        C732   1.409       .  A
C731        C895   1.498       .  S
C732        H735   1.081       .  S
C736        C773   1.466       .  S
C736       C1198   1.490       .  S
C736        N754   1.353       .  A
N737        N754   1.324       .  A
N737        N759   1.317       .  A
N737       Co774   2.080       .  S
C738        C776   1.466       .  S
C738        H783   1.081       .  S
C738        N763   1.340       .  A
H739        C780   1.079       .  S
C740        C744   1.469       .  S
C740        H769   1.081       .  S
C740        N764   1.342       .  A
Co741       N759   2.082       .  S
Co741       N749   2.079       .  S
Co741       N781   2.083       .  S
Co741       N757   2.083       .  S
Co741      Cl785   2.445       .  S
N742        C780   1.339       .  A
N742        N749   1.318       .  A
N742       Co743   2.081       .  S
Co743       N763   2.082       .  S
Co743      Cl785   2.455       .  S
C744       C1111   1.493       .  S
C744        N782   1.350       .  A
N745        N752   1.321       .  A
N745        N775   1.325       .  A
N745       Co778   2.088       .  S
N746        N764   1.319       .  A
N746        N782   1.324       .  A
N747        C776   1.351       .  A
N747        N757   1.323       .  A
H748        C773   1.078       .  S
N749        N770   1.323       .  A
N750        N768   1.318       .  A
N750        N755   1.324       .  A
C751        C779   1.468       .  S
C751        C898   1.495       .  S
C751        N755   1.353       .  A
N752        C767   1.340       .  A
C753        C756   1.464       .  S
C753        H787   1.081       .  S
C753        N781   1.340       .  A
C756        C958   1.489       .  S
C756        N777   1.352       .  A
N757        N763   1.319       .  A
N758        C784   1.335       .  A
N758        N760   1.319       .  A
N759        C773   1.337       .  A
N760        N788   1.327       .  A
N760       Co778   2.099       .  S
H762        C779   1.077       .  S
N764       Co778   2.094       .  S
N765        N777   1.324       .  A
N765        N781   1.319       .  A
N765       Co774   2.085       .  S
C766        C780   1.462       .  S
C766       C1075   1.486       .  S
C766        N770   1.350       .  A
C767        C786   1.457       .  S
N768        C779   1.339       .  A
N768       Co778   2.086       .  S
C772        C784   1.458       .  S
C772        C979   1.488       .  S
C772        N788   1.355       .  A
Co774      Cl785   2.456       .  S
N775        C786   1.349       .  A
C776        C934   1.491       .  S
C786       C1222   1.473       .  S
C789        C826   1.461       .  S
C789       C1138   1.479       .  S
C789        N807   1.348       .  A
N790        N807   1.323   1_655  A
N790        N812   1.320       .  A
C791        C829   1.459       .  S
C791        N816   1.339       .  A
C793        C797   1.466       .  S
C793        H822   1.081       .  S
C793        N817   1.341   1_455  A
Co794       N812   2.085       .  S
Co794       N802   2.090       .  S
Co794       N834   2.091       .  S
Co794       N810   2.089       .  S
N795        C833   1.340       .  A
N795        N802   1.320   1_455  A
Co796       N799   2.079   1_655  S
Co796       N803   2.082       .  S
Co796      Cl838   2.443       .  S
C797       C1090   1.489       .  S
C797        N835   1.350       .  A
N798        N805   1.317       .  A
N798        N828   1.325   1_655  A
N798       Co831   2.091       .  S
N799        N817   1.318   1_455  A
N799        N835   1.322       .  A
N800        C829   1.352       .  A
N800        N810   1.326       .  A
H801        C826   1.081       .  S
N802        N823   1.326   1_655  A
N803        N821   1.320       .  A
N803        N808   1.323       .  A
C804        C832   1.464       .  S
C804       C1063   1.484       .  S
C804        N808   1.349       .  A
N805        C820   1.336   1_655  A
N805       Co827   2.073       .  S
C806        C809   1.467       .  S
C806        H840   1.081       .  S
C806        N834   1.343       .  A
C809       C1006   1.486       .  S
C809        N830   1.347       .  A
N810        N816   1.320       .  A
N811        C837   1.336       .  A
N811        N813   1.318       .  A
N811       Co827   2.072       .  S
N812        C826   1.340   1_655  A
N813        N841   1.325       .  A
N813       Co831   2.092       .  S
H814        C837   1.079       .  S
H815        C832   1.081       .  S
N817       Co831   2.084       .  S
N818        N830   1.321       .  A
N818        N834   1.319       .  A
C819        C833   1.456       .  S
C819       C1126   1.475       .  S
C819        N823   1.350       .  A
C820        C839   1.465       .  S
C820        H824   1.077       .  S
N821        C832   1.342       .  A
N821       Co831   2.087       .  S
C825        C837   1.462       .  S
C825        C967   1.489       .  S
C825        N841   1.355       .  A
Co827      Cl838   2.445       .  S
N828        C839   1.355       .  A
C829       C1030   1.481       .  S
Co831      Cl838   2.456       .  S
C839       C1162   1.493       .  S
C842        C879   1.465       .  S
C842       C1231   1.489       .  S
C842        N860   1.350       .  A
N843        N860   1.323       .  A
N843        N865   1.318       .  A
C844        C882   1.454       .  S
C844        N869   1.339       .  A
C846        C850   1.462       .  S
C846        H875   1.078       .  S
C846        N870   1.336       .  A
Co847       N865   2.084       .  S
Co847       N855   2.085       .  S
Co847       N887   2.089   1_565  S
Co847       N863   2.089   1_565  S
N848        C886   1.341       .  A
N848        N855   1.319       .  A
Co849       N852   2.088       .  S
Co849       N856   2.080   1_565  S
Co849      Cl891   2.453       .  S
C850       C1186   1.490       .  S
C850        N888   1.355       .  A
N851        N858   1.320       .  A
N851        N881   1.324       .  A
N851       Co884   2.083       .  S
N852        N870   1.318       .  A
N852        N888   1.325       .  A
N853        C882   1.350       .  A
N853        N863   1.326       .  A
H854        C879   1.080       .  S
N855        N876   1.324       .  A
N856        N874   1.320       .  A
N856        N861   1.323       .  A
C857        C885   1.459       .  S
C857        C946   1.468       .  S
C857        N861   1.347       .  A
N858        C873   1.341       .  A
N858       Co880   2.082       .  S
C859        C862   1.468       .  S
C859        H893   1.081       .  S
C859        N887   1.341       .  A
C862       C1018   1.492       .  S
C862        N883   1.350       .  A
N863        N869   1.321       .  A
N864        C890   1.338       .  A
N864        N866   1.319       .  A
N864       Co880   2.077   1_545  S
N865        C879   1.340       .  A
N866        N894   1.325       .  A
N866       Co884   2.085   1_545  S
H867        C890   1.080       .  S
H868        C885   1.081       .  S
N870       Co884   2.077       .  S
N871        N883   1.323       .  A
N871        N887   1.319       .  A
C872        C886   1.468       .  S
C872       C1150   1.493       .  S
C872        N876   1.351       .  A
C873        C892   1.456       .  S
C873        H877   1.081       .  S
N874        C885   1.342       .  A
N874       Co884   2.086   1_545  S
C878        C890   1.458       .  S
C878       C1039   1.478       .  S
C878        N894   1.351       .  A
Co880      Cl891   2.451       .  S
N881        C892   1.347       .  A
C882        C907   1.470       .  S
Co884      Cl891   2.446       .  S
C892       C1210   1.468       .  S
C895        C896   1.406       .  A
C895        C900   1.415       .  A
C896        C897   1.399       .  A
C896        H901   1.084       .  S
C897        C898   1.417       .  A
C897        C904   1.442       .  S
C898        C899   1.408       .  A
C899        C900   1.403       .  A
C899        H902   1.085       .  S
C900        C903   1.444       .  S
C903        N905   1.157       .  T
C904        N906   1.158       .  T
C907        C908   1.399       .  A
C907        C912   1.406       .  A
C908        C909   1.401       .  A
C908        H913   1.085       .  S
C909        C910   1.418       .  A
C909        C916   1.444       .  S
C910        C911   1.408       .  A
C911        C912   1.401       .  A
C911        H914   1.084       .  S
C912        C915   1.444       .  S
C916        N918   1.157       .  T
C919        C920   1.403       .  A
C919        C924   1.413       .  A
C920        C921   1.397       .  A
C920        H925   1.085       .  S
C921        C922   1.413       .  A
C921        C928   1.445       .  S
C922        C923   1.406       .  A
C923        C924   1.404       .  A
C923        H926   1.085       .  S
C924        C927   1.444       .  S
C927        N929   1.157       .  T
C928        N930   1.157       .  T
C931        C932   1.405       .  A
C931        C936   1.415       .  A
C932        C933   1.401       .  A
C932        H937   1.085       .  S
C933        C934   1.418       .  A
C933        C940   1.444       .  S
C934        C935   1.406       .  A
C935        C936   1.400       .  A
C935        H938   1.083       .  S
C936        C939   1.445       .  S
C939        N941   1.157       .  T
C940        N942   1.158       .  T
C943        C944   1.406       .  A
C943        C948   1.413       .  A
C944        C945   1.401       .  A
C944        H949   1.085       .  S
C945        C946   1.407       .  A
C945        C952   1.444       .  S
C946        C947   1.401       .  A
C947        C948   1.400       .  A
C947        H950   1.085       .  S
C948        C951   1.444       .  S
C951        N953   1.157       .  T
C952        N954   1.157       .  T
C955        C956   1.406       .  A
C955        C960   1.416       .  A
C956        C957   1.400       .  A
C956        H961   1.085       .  S
C957        C958   1.414       .  A
C957        C964   1.444       .  S
C958        C959   1.406       .  A
C959        C960   1.401       .  A
C959        H962   1.083       .  S
C960        C963   1.444       .  S
C963        N965   1.157       .  T
C964        N966   1.157       .  T
C967        C968   1.404       .  A
C967        C972   1.415       .  A
C968        C969   1.401       .  A
C968        H973   1.085       .  S
C969        C970   1.419       .  A
C969        C976   1.443       .  S
C970        C971   1.408       .  A
C971        C972   1.399       .  A
C971        H974   1.084       .  S
C972        C975   1.443       .  S
C975        N977   1.157       .  T
C976        N978   1.157       .  T
C979        C980   1.408       .  A
C979        C984   1.414       .  A
C980        C981   1.399       .  A
C980        H985   1.083       .  S
C981        C982   1.408       .  A
C981        C988   1.445       .  S
C982        C983   1.402       .  A
C983        C984   1.401       .  A
C983        H986   1.085       .  S
C984        C987   1.441       .  S
C987        N989   1.156       .  T
C988        N990   1.157       .  T
C991        C992   1.404       .  A
C991        C996   1.411       .  A
C992        C993   1.404       .  A
C992        H997   1.084       .  S
C993        C994   1.412       .  A
C993       C1000   1.443       .  S
C994        C995   1.400       .  A
C995        C996   1.394       .  A
C995        H998   1.085       .  S
C996        C999   1.444       .  S
C999       N1001   1.157       .  T
C1000      N1002   1.157       .  T
C1003      C1004   1.399       .  A
C1003      C1008   1.409       .  A
C1004      C1005   1.400       .  A
C1004      H1009   1.085       .  S
C1005      C1006   1.419       .  A
C1005      C1012   1.444       .  S
C1006      C1007   1.404       .  A
C1007      C1008   1.399       .  A
C1007      H1010   1.080       .  S
C1008      C1011   1.444       .  S
C1011      N1013   1.157       .  T
C1012      N1014   1.157       .  T
C1015      C1016   1.402       .  A
C1015      C1020   1.413       .  A
C1016      C1017   1.402       .  A
C1016      H1021   1.085       .  S
C1017      C1018   1.419       .  A
C1017      C1024   1.444       .  S
C1018      C1019   1.406       .  A
C1019      C1020   1.399       .  A
C1019      H1022   1.082       .  S
C1020      C1023   1.445       .  S
C1023      N1025   1.157       .  T
C1027      C1028   1.401       .  A
C1027      C1032   1.408       .  A
C1028      C1029   1.401       .  A
C1028      H1033   1.085       .  S
C1029      C1030   1.412       .  A
C1029      C1036   1.442       .  S
C1030      C1031   1.406       .  A
C1031      C1032   1.400       .  A
C1031      H1034   1.084       .  S
C1032      C1035   1.444       .  S
C1035      N1037   1.157       .  T
C1036      N1038   1.156       .  T
C1039      C1040   1.403       .  A
C1039      C1044   1.416       .  A
C1040      C1041   1.399       .  A
C1040      H1045   1.085       .  S
C1041      C1042   1.409       .  A
C1041      C1048   1.444       .  S
C1042      C1043   1.400       .  A
C1043      C1044   1.401       .  A
C1043      H1046   1.085       .  S
C1044      C1047   1.444       .  S
C1047      N1049   1.157       .  T
C1048      N1050   1.157       .  T
C1051      C1052   1.404       .  A
C1051      C1056   1.413       .  A
C1052      C1053   1.397       .  A
C1052      H1057   1.084       .  S
C1053      C1054   1.413       .  A
C1053      C1060   1.444       .  S
C1054      C1055   1.406       .  A
C1055      C1056   1.403       .  A
C1055      H1058   1.085       .  S
C1056      C1059   1.444       .  S
C1059      N1061   1.157       .  T
C1060      N1062   1.157       .  T
C1063      C1064   1.405       .  A
C1063      C1068   1.417       .  A
C1064      C1065   1.401       .  A
C1064      H1069   1.084       .  S
C1065      C1066   1.409       .  A
C1065      C1072   1.444       .  S
C1066      C1067   1.400       .  A
C1067      C1068   1.400       .  A
C1067      H1070   1.085       .  S
C1068      C1071   1.444       .  S
C1071      N1073   1.157       .  T
C1072      N1074   1.157       .  T
C1075      C1076   1.403       .  A
C1075      C1080   1.414       .  A
C1076      C1077   1.399       .  A
C1076      H1081   1.085       .  S
C1077      C1078   1.419       .  A
C1077      C1084   1.444       .  S
C1078      C1079   1.408       .  A
C1079      C1080   1.399       .  A
C1079      H1082   1.085       .  S
C1080      C1083   1.444       .  S
C1083      N1085   1.157       .  T
C1084      N1086   1.157       .  T
C1087      C1088   1.402       .  A
C1087      C1092   1.412       .  A
C1088      C1089   1.397       .  A
C1088      H1093   1.084       .  S
C1089      C1090   1.417       .  A
C1089      C1096   1.444       .  S
C1090      C1091   1.408       .  A
C1091      C1092   1.402       .  A
C1091      H1094   1.082       .  S
C1092      C1095   1.444       .  S
C1095      N1097   1.157       .  T
C1096      N1098   1.157       .  T
C1099      C1100   1.401       .  A
C1099      C1104   1.411       .  A
C1100      C1101   1.395       .  A
C1100      H1105   1.083       .  S
C1101      C1102   1.413       .  A
C1101      C1108   1.445       .  S
C1102      C1103   1.405       .  A
C1103      C1104   1.403       .  A
C1103      H1106   1.085       .  S
C1104      C1107   1.443       .  S
C1107      N1109   1.157       .  T
C1108      N1110   1.157       .  T
C1111      C1112   1.404       .  A
C1111      C1116   1.418       .  A
C1112      C1113   1.400       .  A
C1112      H1117   1.082       .  S
C1113      C1114   1.418       .  A
C1113      C1120   1.444       .  S
C1114      C1115   1.404       .  A
C1115      C1116   1.403       .  A
C1115      H1118   1.084       .  S
C1119      N1121   1.157   1_554  T
C1120      N1122   1.157       .  T
C1123      C1124   1.415       .  A
C1123      C1128   1.426       .  A
C1124      C1125   1.402       .  A
C1124      H1129   1.082       .  S
C1125      C1126   1.404       .  A
C1125      C1132   1.444       .  S
C1126      C1127   1.396       .  A
C1127      C1128   1.402       .  A
C1127      H1130   1.086       .  S
C1128      C1131   1.442       .  S
C1131      N1133   1.157       .  T
C1135      C1136   1.400       .  A
C1135      C1140   1.408       .  A
C1136      C1137   1.400       .  A
C1136      H1141   1.085       .  S
C1137      C1138   1.416       .  A
C1137      C1144   1.444       .  S
C1138      C1139   1.404       .  A
C1139      C1140   1.399       .  A
C1139      H1142   1.084       .  S
C1140      C1143   1.443       .  S
C1143      N1145   1.157       .  T
C1144      N1146   1.157       .  T
C1147      C1148   1.403       .  A
C1147      C1152   1.414       .  A
C1148      C1149   1.402       .  A
C1148      H1153   1.085       .  S
C1149      C1150   1.419       .  A
C1149      C1156   1.443       .  S
C1150      C1151   1.406       .  A
C1151      C1152   1.400       .  A
C1151      H1154   1.083       .  S
C1152      C1155   1.445       .  S
C1155      N1157   1.157       .  T
C1156      N1158   1.157       .  T
C1159      C1160   1.404       .  A
C1159      C1164   1.415       .  A
C1160      C1161   1.399       .  A
C1160      H1165   1.084       .  S
C1161      C1162   1.418       .  A
C1161      C1168   1.443       .  S
C1162      C1163   1.408       .  A
C1163      C1164   1.402       .  A
C1163      H1166   1.084       .  S
C1164      C1167   1.444       .  S
C1167      N1169   1.157       .  T
C1168      N1170   1.158       .  T
C1171      C1172   1.407       .  A
C1171      C1176   1.415       .  A
C1172      C1173   1.405       .  A
C1172      H1177   1.085       .  S
C1173      C1174   1.414       .  A
C1173      C1180   1.443       .  S
C1174      C1175   1.403       .  A
C1175      C1176   1.396       .  A
C1175      H1178   1.085       .  S
C1176      C1179   1.443       .  S
C1179      N1181   1.157       .  T
C1180      N1182   1.157       .  T
C1183      C1184   1.405       .  A
C1183      C1188   1.419       .  A
C1184      C1185   1.399       .  A
C1184      H1189   1.084       .  S
C1185      C1186   1.417       .  A
C1185      C1192   1.443       .  S
C1186      C1187   1.404       .  A
C1187      C1188   1.402       .  A
C1187      H1190   1.085       .  S
C1188      C1191   1.444       .  S
C1191      N1193   1.157       .  T
C1192      N1194   1.158       .  T
C1195      C1196   1.406       .  A
C1195      C1200   1.417       .  A
C1196      C1197   1.397       .  A
C1196      H1201   1.084       .  S
C1197      C1198   1.415       .  A
C1197      C1204   1.443       .  S
C1198      C1199   1.407       .  A
C1199      C1200   1.404       .  A
C1199      H1202   1.085       .  S
C1200      C1203   1.444       .  S
C1203      N1205   1.157       .  T
C1204      N1206   1.158       .  T
C1207      C1208   1.406       .  A
C1207      C1212   1.415       .  A
C1208      C1209   1.401       .  A
C1208      H1213   1.085       .  S
C1209      C1210   1.407       .  A
C1209      C1216   1.444       .  S
C1210      C1211   1.399       .  A
C1211      C1212   1.399       .  A
C1211      H1214   1.085       .  S
C1212      C1215   1.444       .  S
C1215      N1217   1.157       .  T
C1216      N1218   1.157       .  T
C1219      C1220   1.402       .  A
C1219      C1224   1.409       .  A
C1220      C1221   1.401       .  A
C1220      H1225   1.085       .  S
C1221      C1222   1.410       .  A
C1221      C1228   1.444       .  S
C1222      C1223   1.404       .  A
C1223      C1224   1.401       .  A
C1223      H1226   1.085       .  S
C1224      C1227   1.444       .  S
C1227      N1229   1.157       .  T
C1228      N1230   1.157       .  T
C1231      C1232   1.407       .  A
C1231      C1236   1.418       .  A
C1232      C1233   1.400       .  A
C1232      H1237   1.082       .  S
C1233      C1234   1.411       .  A
C1233      C1240   1.444       .  S
C1234      C1235   1.402       .  A
C1235      C1236   1.400       .  A
C1235      H1238   1.085       .  S
C1236      C1239   1.444       .  S
C1240      N1242   1.157       .  T
C1243      C1244   1.403       .  A
C1243      C1248   1.415       .  A
C1244      C1245   1.397       .  A
C1244      H1249   1.085       .  S
C1245      C1246   1.414       .  A
C1245      C1252   1.445       .  S
C1246      C1247   1.405       .  A
C1247      C1248   1.403       .  A
C1247      H1250   1.085       .  S
C1248      C1251   1.444       .  S
C1251      N1253   1.157       .  T
C1252      N1254   1.157       .  T
