geometry optimzed in LAMMPS
_audit_creation_date              2020-11-30 
_audit_creation_method            'lammps2cif' 
_symmetry_space_group_name_H-M    'P1' 
_symmetry_Int_Tables_number       1 
_symmetry_cell_setting            triclinic 
loop_ 
_symmetry_equiv_pos_as_xyz 
  x,y,z 
_cell_length_a                    52.72011894012191 
_cell_length_b                    52.75435465369745 
_cell_length_c                    34.34264846831949 
_cell_angle_alpha                 90.10793506538559 
_cell_angle_beta                  89.96830578036082 
_cell_angle_gamma                 119.92309228562812 
loop_ 
_atom_site_label 
_atom_site_type_symbol 
_atom_site_fract_x 
_atom_site_fract_y 
_atom_site_fract_z 
_atom_site_charge 
C1          C  0.24596771  0.37403034  0.16249466     0.03200
C2          C  0.24547417  0.39697409  0.14274783    -0.12950
C3          C  0.24739806  0.39866013  0.10196589     0.00700
C4          C  0.24993928  0.37716575  0.08095430    -0.11480
C5          C  0.24910040  0.35339021  0.10053346     0.03190
C6          C  0.24733547  0.35208696  0.14131469    -0.10900
H7          H  0.24408781  0.41375917  0.15929859     0.08780
H8          H  0.25109479  0.37818171  0.04944700     0.06310
H9          H  0.24716616  0.33407791  0.15670141     0.06160
C10         C  0.24633648  0.37394293  0.33044079     0.03200
C11         C  0.24678719  0.39705038  0.35122208    -0.12950
C12         C  0.24865979  0.39791513  0.39209700     0.00700
C13         C  0.24988149  0.37530140  0.41204105    -0.11480
C14         C  0.24774998  0.35132908  0.39138763     0.03190
C15         C  0.24607748  0.35085560  0.35064669    -0.10900
H16         H  0.24640431  0.41464908  0.33549460     0.08780
H17         H  0.25101579  0.37562119  0.44355692     0.06310
H18         H  0.24503166  0.33270501  0.33442597     0.06160
C19         C  0.09170994  0.37434065  0.33040144     0.03200
C20         C  0.11464338  0.39792149  0.35009517    -0.12950
C21         C  0.11529169  0.39912126  0.39083790     0.00700
C22         C  0.09221194  0.37698782  0.41221274    -0.11480
C23         C  0.06980720  0.35257126  0.39291441     0.03190
C24         C  0.07011449  0.35105233  0.35208814    -0.10900
H25         H  0.13193245  0.41560455  0.33357313     0.08780
H26         H  0.09251798  0.37801741  0.44373953     0.06310
H27         H  0.05343221  0.33184206  0.33721301     0.06160
C28         C  0.09371996  0.37625633  0.16168068     0.03200
C29         C  0.11441919  0.40018928  0.14007869    -0.12950
C30         C  0.11371337  0.39961796  0.09927361     0.00700
C31         C  0.09083366  0.37572609  0.07985426    -0.11480
C32         C  0.06991549  0.35163374  0.10116971     0.03190
C33         C  0.07171435  0.35189618  0.14194556    -0.10900
H34         H  0.13080835  0.41961033  0.15491050     0.08780
H35         H  0.09001257  0.37531639  0.04831617     0.06310
H36         H  0.05560972  0.33335855  0.15852938     0.06160
C37         C  0.09174893  0.22085086  0.16250399     0.03200
C38         C  0.11568817  0.22233120  0.14268193    -0.12950
C39         C  0.11556964  0.22021852  0.10196423     0.00700
C40         C  0.09134185  0.21694036  0.08078802    -0.11480
C41         C  0.06781779  0.21671707  0.10028242     0.03190
C42         C  0.06782443  0.21792392  0.14109721    -0.10900
H43         H  0.13422664  0.22462163  0.15918357     0.08780
H44         H  0.09142564  0.21595617  0.04927730     0.06310
H45         H  0.04886955  0.21598968  0.15619012     0.06160
C46         C  0.09334606  0.22027676  0.33106665     0.03200
C47         C  0.06957562  0.21935852  0.35060894    -0.12950
C48         C  0.06799371  0.21813128  0.39134809     0.00700
C49         C  0.08998125  0.21686643  0.41278225    -0.11480
C50         C  0.11458784  0.21916282  0.39362340     0.03190
C51         C  0.11642944  0.22155989  0.35286985    -0.10900
H52         H  0.05207264  0.21927751  0.33396049     0.08780
H53         H  0.08871565  0.21572483  0.44428103     0.06310
H54         H  0.13574162  0.22418503  0.33808439     0.06160
C55         C  0.36149133  0.10548611  0.33007956     0.03200
C56         C  0.38389690  0.12903663  0.35025465    -0.12950
C57         C  0.38530148  0.12869515  0.39096483     0.00700
C58         C  0.36400280  0.10446006  0.41167549    -0.11480
C59         C  0.34048366  0.08142362  0.39180232     0.03190
C60         C  0.33932466  0.08210662  0.35093066    -0.10900
H61         H  0.40052415  0.14745837  0.33402208     0.08780
H62         H  0.36495092  0.10423367  0.44318438     0.06310
H63         H  0.32155727  0.06420830  0.33525959     0.06160
C64         C  0.36073547  0.10692568  0.16204505     0.03200
C65         C  0.38399479  0.12905693  0.14099698    -0.12950
C66         C  0.38492064  0.12744482  0.10020965     0.00700
C67         C  0.36240818  0.10330133  0.08054745    -0.11480
C68         C  0.33856070  0.08162473  0.10142163     0.03190
C69         C  0.33804401  0.08343307  0.14211169    -0.10900
H70         H  0.40150970  0.14732282  0.15649025     0.08780
H71         H  0.36274635  0.10205538  0.04906797     0.06310
H72         H  0.32021457  0.06621095  0.15848953     0.06160
C73         C  0.36111664  0.25731089  0.16278668     0.03200
C74         C  0.38479299  0.25849547  0.14280619    -0.12950
C75         C  0.38651480  0.26076959  0.10212414     0.00700
C76         C  0.36470459  0.26280901  0.08128710    -0.11480
C77         C  0.34047448  0.26101268  0.10098514     0.03190
C78         C  0.33885174  0.25829945  0.14174699    -0.10900
H79         H  0.40223989  0.25821610  0.15912349     0.08780
H80         H  0.36590909  0.26440021  0.04981654     0.06310
H81         H  0.32047011  0.25733498  0.15724782     0.06160
C82         C  0.36219773  0.25939712  0.33097055     0.03200
C83         C  0.38568071  0.26067098  0.35175312    -0.12950
C84         C  0.38643155  0.26247635  0.39262759     0.00700
C85         C  0.36341331  0.26297026  0.41260973    -0.11480
C86         C  0.33906226  0.25993561  0.39198668     0.03190
C87         C  0.33858374  0.25806673  0.35127354    -0.10900
H88         H  0.40360612  0.26084882  0.33602738     0.08780
H89         H  0.36371403  0.26415766  0.44412547     0.06310
H90         H  0.31997690  0.25599688  0.33514332     0.06160
C91         C  0.20965714  0.10680706  0.33037946     0.03200
C92         C  0.20985723  0.08373968  0.34999446    -0.12950
C93         C  0.20787994  0.08197739  0.39069024     0.00700
C94         C  0.20516691  0.10330704  0.41185348    -0.11480
C95         C  0.20607998  0.12717913  0.39247101     0.03190
C96         C  0.20833503  0.12879776  0.35164775    -0.10900
H97         H  0.21122503  0.06697297  0.33336709     0.08780
H98         H  0.20379077  0.10206985  0.44334135     0.06310
H99         H  0.20854432  0.14684403  0.33631851     0.06160
C100        C  0.20868334  0.10523539  0.16257126     0.03200
C101        C  0.20770159  0.08212376  0.14120851    -0.12950
C102        C  0.20586805  0.08174945  0.10037438     0.00700
C103        C  0.20484518  0.10467216  0.08104419    -0.11480
C104        C  0.20726995  0.12854896  0.10228864     0.03190
C105        C  0.20917707  0.12867417  0.14300611    -0.10900
H106        H  0.20799085  0.06430330  0.15646956     0.08780
H107        H  0.20365214  0.10466213  0.04954443     0.06310
H108        H  0.21039298  0.14671827  0.15968860     0.06160
C109        C  0.24619190  0.32613554  0.41181031     0.42520
N110        N  0.25582504  0.30028270  0.45043600     0.01410
C111        C  0.19077411  0.14933827  0.45110559    -0.06460
H112        H  0.11822538  0.19097264  0.47014114     0.06910
C113        C  0.17140682  0.23780603  0.09519135    -0.06810
Co114      Co  0.22498086  0.23750157  0.42602957     0.74180
N115        N  0.16424112  0.20910166  0.45754354    -0.25990
Co116      Co  0.18103449  0.19380124  0.50076079     0.74070
C117        C  0.14110716  0.22201580  0.08199175     0.42630
N118        N  0.24231172  0.28672615  0.06558159     0.01030
N119        N  0.16715317  0.21212398  0.04388493     0.01140
N120        N  0.21853903  0.17893227  0.40221426    -0.46840
H121        H  0.21604992  0.28620731  0.37408369     0.06890
N122        N  0.18103047  0.22556983  0.42889458     0.01420
N123        N  0.19916091  0.17985732  0.04392598     0.01160
C124        C  0.20870305  0.15387355  0.08240632     0.42770
N125        N  0.25883489  0.30335308  0.03684898    -0.25450
C126        C  0.28334227  0.24221370  0.39933126    -0.06370
N127        N  0.26168280  0.32744693  0.44382039    -0.46550
N128        N  0.19332817  0.15269099  0.05035253    -0.46780
C129        C  0.31365464  0.25798420  0.41242543     0.42540
N130        N  0.21255005  0.19348657  0.42860149     0.01410
N131        N  0.29072715  0.27114601  0.03709668    -0.25470
N132        N  0.23746605  0.28148103  0.42469715    -0.25960
N133        N  0.27396240  0.25474365  0.06581859     0.01050
H134        H  0.33680174  0.28955101  0.02469078     0.06940
H135        H  0.23874400  0.19367645  0.12043641     0.06970
N136        N  0.19605368  0.17671989  0.45725201    -0.26010
N137        N  0.18588031  0.23048402  0.06970525    -0.25620
N138        N  0.28773925  0.26790861  0.45065484     0.01410
C139        C  0.13868866  0.21953069  0.41573073     0.42810
C140        C  0.26406456  0.33074071  0.04248156    -0.06880
N141        N  0.21743387  0.19859933  0.06981918    -0.25620
H142        H  0.18090328  0.25210346  0.12004842     0.06960
N143        N  0.16654832  0.23199113  0.40298443    -0.46850
H144        H  0.27752677  0.34939318  0.02424696     0.06940
C145        C  0.31646169  0.26126305  0.07934529     0.42640
C146        C  0.23029793  0.29581508  0.39894253    -0.06370
Co147      Co  0.27390716  0.28629671  0.49366137     0.73820
N148        N  0.23625497  0.30145687  0.09160314    -0.46560
C149        C  0.20568901  0.15098530  0.41448357     0.42910
N150        N  0.31488994  0.27359695  0.44427467    -0.46550
Co151      Co  0.22991596  0.24266168  0.06851753     0.73890
C152        C  0.22453799  0.18415945  0.09552101    -0.06880
C153        C  0.13698091  0.20428540  0.45194211    -0.06440
N154        N  0.26895840  0.24957805  0.42485923    -0.25970
N155        N  0.13998932  0.20643423  0.05015784    -0.46730
H156        H  0.17729461  0.13054667  0.46912573     0.06920
C157        C  0.31806131  0.27621580  0.04289395    -0.06860
Cl158      Cl  0.22746548  0.24005117  0.49725464    -0.49860
C159        C  0.24908901  0.32930962  0.07885990     0.42670
H160        H  0.27378981  0.22795169  0.37445647     0.06880
N161        N  0.28854279  0.24860703  0.09195355    -0.46570
C162        C  0.04625298  0.32604748  0.08119620     0.42520
N163        N  0.51023035  0.30018670  0.04316930     0.01410
C164        C  0.42231963  0.14955446  0.04193688    -0.06460
H165        H  0.03539875  0.18824047  0.02378950     0.06910
C166        C  0.02997507  0.23588763  0.39795588    -0.06810
Co167      Co  0.47749527  0.23750172  0.06769432     0.74180
N168        N  0.50865564  0.20780453  0.03604495    -0.25990
Co169      Co  0.47664606  0.19319500  0.49276487     0.74070
C170        C  0.04398162  0.21959248  0.41097637     0.42510
N171        N  0.50977337  0.28623345  0.42811009     0.01030
N172        N  0.50871768  0.21082692  0.44959605     0.01140
N173        N  0.42453537  0.17923092  0.09114058    -0.46840
H174        H  0.03622090  0.28623835  0.11930718     0.06890
N175        N  0.50869364  0.22446645  0.06478697     0.01420
N176        N  0.44456160  0.17975401  0.44971775     0.01160
C177        C  0.40881434  0.15404527  0.41135539     0.42770
N178        N  0.51018283  0.30308700  0.45684030    -0.25450
C179        C  0.42481627  0.24353191  0.09484785    -0.06370
N180        N  0.03182989  0.32724258  0.04941747    -0.46550
N181        N  0.42301254  0.15270583  0.44327668    -0.46780
C182        C  0.41052711  0.25957678  0.08200583     0.42540
N183        N  0.44521081  0.19363898  0.06492484     0.01410
N184        N  0.44608125  0.27198451  0.45663042    -0.25470
N185        N  0.50969988  0.28140563  0.06896846    -0.25960
N186        N  0.44619588  0.25544565  0.42781905     0.01050
H187        H  0.41898299  0.29112318  0.46897089     0.06940
H188        H  0.41905053  0.19394017  0.37332382     0.06970
N189        N  0.44466880  0.17676914  0.03613539    -0.26010
N190        N  0.50856800  0.22925215  0.42375728    -0.25620
N191        N  0.44595576  0.26888490  0.04334137     0.01410
C192        C  0.04378629  0.21668822  0.07855221     0.42810
C193        C  0.03268343  0.33025181  0.45128343    -0.06880
N194        N  0.44524741  0.19859519  0.42389310    -0.25620
H195        H  0.03484833  0.25006749  0.37301713     0.06960
N196        N  0.02914414  0.23003274  0.09106872    -0.46850
H197        H  0.03816742  0.34903554  0.46951526     0.06940
C198        C  0.41078870  0.26280993  0.41409432     0.42640
C199        C  0.03153320  0.29577086  0.09443635    -0.06370
Co200      Co  0.47807901  0.28664817  0.50009452     0.73820
N201        N  0.03066505  0.30061431  0.40215532    -0.46560
C202        C  0.40911945  0.15133589  0.07848539     0.42910
N203        N  0.42472048  0.27492468  0.04994715    -0.46550
Co204      Co  0.47745368  0.24241927  0.42513168     0.73890
C205        C  0.42356510  0.18433522  0.39826951    -0.06880
C206        C  0.03042084  0.20198540  0.04194304    -0.06440
N207        N  0.44629799  0.25050707  0.06909842    -0.25970
N208        N  0.02973723  0.20448175  0.44310498    -0.46730
H209        H  0.41681771  0.13075610  0.02372682     0.06920
C210        C  0.42414847  0.27756702  0.45073562    -0.06860
Cl211      Cl  0.47740936  0.23994534  0.49642067    -0.49860
C212        C  0.04616267  0.32844744  0.41501029     0.42670
H213        H  0.42004063  0.22923786  0.11963189     0.06880
N214        N  0.42566127  0.24970623  0.40154811    -0.46570
C215        C  0.24583862  0.42242613  0.08169662     0.42520
N216        N  0.25530162  0.45773550  0.04274369     0.01410
C217        C  0.19118103  0.04472143  0.04154915    -0.06460
H218        H  0.11780194  0.43181026  0.02277946     0.06910
C219        C  0.17106761  0.43707619  0.39737209    -0.06810
Co220      Co  0.22473882  0.49013106  0.06698452     0.74180
N221        N  0.16399869  0.45863869  0.03521804    -0.25990
Co222      Co  0.18124907  0.49059575  0.49203655     0.74070
C223        C  0.14078322  0.42300741  0.41051008     0.42630
N224        N  0.24199303  0.45797528  0.42723513     0.01030
N225        N  0.16713118  0.45847860  0.44891159     0.01140
N226        N  0.21863425  0.04258541  0.09074149    -0.46840
H227        H  0.21573301  0.43242610  0.11932722     0.06890
N228        N  0.18059649  0.45867907  0.06399855     0.01420
N229        N  0.19968552  0.02258695  0.44900983     0.01160
C230        C  0.20942753  0.05817015  0.41063470     0.42770
N231        N  0.25844016  0.45770264  0.45603028    -0.25450
C232        C  0.28312164  0.04314356  0.09412570    -0.06370
N233        N  0.26121609  0.43647133  0.04957318    -0.46550
N234        N  0.19401434  0.04404472  0.44262896    -0.46780
C235        C  0.31345145  0.05757595  0.08128754     0.42540
N236        N  0.21274257  0.02211552  0.06428363     0.01410
N237        N  0.29076034  0.02176426  0.45593065    -0.25470
N238        N  0.23693867  0.45829166  0.06843963    -0.25960
N239        N  0.27404456  0.02146533  0.42712046     0.01050
H240        H  0.33690110  0.04919190  0.46824150     0.06940
H241        H  0.23928079  0.04808381  0.37254355     0.06970
N242        N  0.19641892  0.02258562  0.03549244    -0.26010
N243        N  0.18575586  0.45861418  0.42307189    -0.25620
N244        N  0.28763111  0.02198510  0.04268130     0.01410
C245        C  0.13778347  0.42351335  0.07755889     0.42810
C246        C  0.26363794  0.43552055  0.45022828    -0.06880
N247        N  0.21787942  0.02192944  0.42312904    -0.25620
H248        H  0.18039993  0.43216836  0.37240938     0.06960
N249        N  0.16571296  0.43823435  0.09022510    -0.46850
H250        H  0.27707209  0.43022328  0.46844229     0.06940
C251        C  0.31660448  0.05708110  0.41338377     0.42640
C252        C  0.22987566  0.43690363  0.09438731    -0.06370
Co253      Co  0.27366596  0.48980439  0.49944638     0.73820
N254        N  0.23599740  0.43730567  0.40101783    -0.46560
C255        C  0.20590813  0.05781255  0.07828523     0.42910
N256        N  0.31478704  0.04335410  0.04928243    -0.46550
Co257      Co  0.22993075  0.48996828  0.42438488     0.73890
C258        C  0.22512211  0.04352030  0.39748713    -0.06880
C259        C  0.13647356  0.43682594  0.04097493    -0.06440
N260        N  0.26880171  0.02156819  0.06840746    -0.25970
N261        N  0.13984766  0.43737021  0.44253524    -0.46730
H262        H  0.17774377  0.05009034  0.02345752     0.06920
C263        C  0.31815426  0.04384482  0.45002155    -0.06860
Cl264      Cl  0.22741117  0.49010233  0.49570497    -0.49860
C265        C  0.24876816  0.42215361  0.41367073     0.42670
H266        H  0.27348855  0.04788503  0.11889560     0.06880
N267        N  0.28867331  0.04199415  0.40085804    -0.46570
C268        C  0.18386641  0.08845752  0.26764631    -0.20240
C269        C  0.20989324  0.10716104  0.28742698    -0.06810
C270        C  0.23570505  0.12488210  0.26616071     0.14060
C271        C  0.23482805  0.12367413  0.22530977    -0.20290
C272        C  0.20879019  0.10494337  0.20553462    -0.06810
C273        C  0.18297434  0.08721893  0.22683973     0.14050
C274        C  0.15442766  0.06747905  0.20652362    -0.23640
H275        H  0.16417674  0.07485145  0.28427650     0.15340
H276        H  0.25449464  0.13728588  0.20869251     0.15370
C277        C  0.26417107  0.14464715  0.28657973    -0.23590
H278        H  0.13627951  0.05560910  0.22758958     0.05580
H279        H  0.15648397  0.05100275  0.18876339     0.08810
H280        H  0.14854969  0.08065404  0.18726882     0.08810
H281        H  0.27012963  0.13145371  0.30567554     0.08790
H282        H  0.26192482  0.16093080  0.30454866     0.08790
H283        H  0.28232388  0.15670407  0.26557993     0.05560
C284        C  0.36257192  0.28110199  0.22552070    -0.20240
C285        C  0.36065187  0.25688183  0.20586816    -0.06810
C286        C  0.35918045  0.23337589  0.22747446     0.14060
C287        C  0.36003138  0.23490523  0.26832195    -0.20290
C288        C  0.36202459  0.25917656  0.28791641    -0.06810
C289        C  0.36335764  0.28260215  0.26630671     0.14050
C290        C  0.36650233  0.30957755  0.28607555    -0.23640
H291        H  0.36390291  0.29912883  0.20876220     0.15340
H292        H  0.35876373  0.21694272  0.28512683     0.15370
C293        C  0.35573638  0.20628465  0.20770536    -0.23590
H294        H  0.36866510  0.32628853  0.26464282     0.05580
H295        H  0.38634334  0.31949648  0.30474682     0.08810
H296        H  0.34698620  0.30390137  0.30422661     0.08810
H297        H  0.37517511  0.21170176  0.18953419     0.08790
H298        H  0.33588123  0.19653511  0.18906622     0.08790
H299        H  0.35336962  0.18950117  0.22915169     0.05560
C300        C  0.34018137  0.10939990  0.26756063    -0.20240
C301        C  0.36139175  0.10558215  0.28705959    -0.06810
C302        C  0.38259802  0.10264227  0.26541554     0.14060
C303        C  0.38208270  0.10363814  0.22463549    -0.20290
C304        C  0.36083389  0.10736871  0.20508735    -0.06810
C305        C  0.33971136  0.11046487  0.22672775     0.14050
C306        C  0.31724414  0.11573031  0.20692507    -0.23640
H307        H  0.32418690  0.11191670  0.28441530     0.15340
H308        H  0.39808708  0.10108228  0.20780935     0.15370
C309        C  0.40529589  0.09771819  0.28521404    -0.23590
H310        H  0.30330857  0.11897678  0.22833780     0.05580
H311        H  0.30266341  0.09673658  0.18838863     0.08810
H312        H  0.32841842  0.13565279  0.18858448     0.08810
H313        H  0.39433568  0.07777081  0.30353879     0.08790
H314        H  0.41967676  0.11678807  0.30376725     0.08790
H315        H  0.41940474  0.09474046  0.26380127     0.05560
C316        C  0.09009949  0.24174836  0.26832170    -0.20240
C317        C  0.09397735  0.22055754  0.28786275    -0.06810
C318        C  0.09647404  0.19914125  0.26595083     0.14060
C319        C  0.09537569  0.19979652  0.22518755    -0.20290
C320        C  0.09155182  0.22100720  0.20567205    -0.06810
C321        C  0.08884522  0.24229372  0.22753450     0.14050
C322        C  0.08570736  0.26625623  0.20824578    -0.23640
H323        H  0.08809403  0.25805639  0.28520774     0.15340
H324        H  0.09730210  0.18343825  0.20826540     0.15370
C325        C  0.09904655  0.17480308  0.28511672    -0.23590
H326        H  0.08622926  0.28221276  0.22984000     0.05580
H327        H  0.06451041  0.25699404  0.19267222     0.08810
H328        H  0.10393461  0.27834731  0.18742801     0.08810
H329        H  0.08074037  0.16291779  0.30590443     0.08790
H330        H  0.12020823  0.18365304  0.30065090     0.08790
H331        H  0.09818473  0.15873012  0.26344473     0.05560
C332        C  0.11671823  0.37907382  0.26747637    -0.20240
C333        C  0.09128623  0.37402532  0.28716228    -0.06810
C334        C  0.06707982  0.37089548  0.26538232     0.14060
C335        C  0.06870738  0.37188829  0.22456270    -0.20290
C336        C  0.09410641  0.37675591  0.20490592    -0.06810
C337        C  0.11862756  0.38088816  0.22674960     0.14050
C338        C  0.14663665  0.38640052  0.20764433    -0.23640
H339        H  0.13531027  0.38174103  0.28421723     0.15340
H340        H  0.05012810  0.36920253  0.20777090     0.15370
C341        C  0.04002975  0.36793119  0.28471840    -0.23590
H342        H  0.16267983  0.38761514  0.22951225     0.05580
H343        H  0.15730788  0.40768129  0.19234727     0.08810
H344        H  0.14205492  0.36853024  0.18676888     0.08810
H345        H  0.04621676  0.38622322  0.30553700     0.08790
H346        H  0.02802302  0.34679029  0.30023847     0.08790
H347        H  0.02465496  0.36854633  0.26315064     0.05560
C348        C  0.27121689  0.37993682  0.22548366    -0.20240
C349        C  0.24544463  0.37320284  0.20547079    -0.06810
C350        C  0.21968723  0.36571298  0.22654023     0.14060
C351        C  0.22061745  0.36669705  0.26740246    -0.20290
C352        C  0.24652352  0.37391597  0.28743884    -0.06810
C353        C  0.27199335  0.38010063  0.26632748     0.14050
C354        C  0.30003589  0.38718708  0.28685124    -0.23640
H355        H  0.29078602  0.38516881  0.20903236     0.15340
H356        H  0.20099023  0.36128715  0.28380872     0.15370
C357        C  0.19110309  0.35560644  0.20579981    -0.23590
H358        H  0.31797248  0.39210641  0.26590687     0.05580
H359        H  0.29668732  0.36828800  0.30481043     0.08810
H360        H  0.30704396  0.40657160  0.30591481     0.08810
H361        H  0.18600373  0.33634514  0.18734200     0.08790
H362        H  0.19263276  0.37342565  0.18705237     0.08790
H363        H  0.17276647  0.34895238  0.22664645     0.05560
C364        C  0.24596771  0.37403034  0.66249466     0.03200
C365        C  0.24547417  0.39697409  0.64274783    -0.12950
C366        C  0.24739806  0.39866013  0.60196588     0.00700
C367        C  0.24993928  0.37716576  0.58095429    -0.11480
C368        C  0.24910040  0.35339021  0.60053346     0.03190
C369        C  0.24733547  0.35208696  0.64131469    -0.10900
H370        H  0.24408781  0.41375917  0.65929859     0.08780
H371        H  0.25109479  0.37818171  0.54944700     0.06310
H372        H  0.24716615  0.33407791  0.65670141     0.06160
C373        C  0.24633648  0.37394293  0.83044079     0.03200
C374        C  0.24678719  0.39705038  0.85122208    -0.12950
C375        C  0.24865979  0.39791512  0.89209700     0.00700
C376        C  0.24988149  0.37530140  0.91204105    -0.11480
C377        C  0.24774998  0.35132908  0.89138763     0.03190
C378        C  0.24607748  0.35085560  0.85064669    -0.10900
H379        H  0.24640430  0.41464907  0.83549460     0.08780
H380        H  0.25101579  0.37562119  0.94355692     0.06310
H381        H  0.24503166  0.33270501  0.83442596     0.06160
C382        C  0.09170993  0.37434066  0.83040144     0.03200
C383        C  0.11464337  0.39792150  0.85009517    -0.12950
C384        C  0.11529168  0.39912126  0.89083790     0.00700
C385        C  0.09221193  0.37698782  0.91221274    -0.11480
C386        C  0.06980720  0.35257127  0.89291441     0.03190
C387        C  0.07011448  0.35105233  0.85208813    -0.10900
H388        H  0.13193244  0.41560456  0.83357314     0.08780
H389        H  0.09251797  0.37801740  0.94373953     0.06310
H390        H  0.05343220  0.33184206  0.83721300     0.06160
C391        C  0.09371995  0.37625634  0.66168068     0.03200
C392        C  0.11441918  0.40018929  0.64007868    -0.12950
C393        C  0.11371337  0.39961797  0.59927361     0.00700
C394        C  0.09083366  0.37572610  0.57985426    -0.11480
C395        C  0.06991549  0.35163375  0.60116971     0.03190
C396        C  0.07171435  0.35189619  0.64194556    -0.10900
H397        H  0.13080835  0.41961034  0.65491050     0.08780
H398        H  0.09001257  0.37531640  0.54831617     0.06310
H399        H  0.05560972  0.33335856  0.65852938     0.06160
C400        C  0.09174892  0.22085085  0.66250399     0.03200
C401        C  0.11568817  0.22233120  0.64268193    -0.12950
C402        C  0.11556964  0.22021852  0.60196423     0.00700
C403        C  0.09134185  0.21694036  0.58078802    -0.11480
C404        C  0.06781779  0.21671707  0.60028242     0.03190
C405        C  0.06782442  0.21792391  0.64109721    -0.10900
H406        H  0.13422663  0.22462163  0.65918357     0.08780
H407        H  0.09142564  0.21595617  0.54927730     0.06310
H408        H  0.04886955  0.21598967  0.65619012     0.06160
C409        C  0.09334606  0.22027675  0.83106665     0.03200
C410        C  0.06957562  0.21935851  0.85060894    -0.12950
C411        C  0.06799371  0.21813128  0.89134809     0.00700
C412        C  0.08998125  0.21686643  0.91278225    -0.11480
C413        C  0.11458784  0.21916282  0.89362340     0.03190
C414        C  0.11642944  0.22155989  0.85286985    -0.10900
H415        H  0.05207264  0.21927750  0.83396049     0.08780
H416        H  0.08871565  0.21572483  0.94428103     0.06310
H417        H  0.13574162  0.22418504  0.83808439     0.06160
C418        C  0.36149133  0.10548610  0.83007956     0.03200
C419        C  0.38389690  0.12903662  0.85025465    -0.12950
C420        C  0.38530148  0.12869514  0.89096483     0.00700
C421        C  0.36400279  0.10446006  0.91167549    -0.11480
C422        C  0.34048365  0.08142362  0.89180232     0.03190
C423        C  0.33932465  0.08210661  0.85093066    -0.10900
H424        H  0.40052414  0.14745837  0.83402208     0.08780
H425        H  0.36495091  0.10423367  0.94318438     0.06310
H426        H  0.32155726  0.06420830  0.83525959     0.06160
C427        C  0.36073547  0.10692568  0.66204505     0.03200
C428        C  0.38399479  0.12905693  0.64099698    -0.12950
C429        C  0.38492064  0.12744483  0.60020966     0.00700
C430        C  0.36240818  0.10330133  0.58054745    -0.11480
C431        C  0.33856070  0.08162473  0.60142163     0.03190
C432        C  0.33804402  0.08343307  0.64211169    -0.10900
H433        H  0.40150971  0.14732282  0.65649025     0.08780
H434        H  0.36274635  0.10205538  0.54906797     0.06310
H435        H  0.32021457  0.06621095  0.65848953     0.06160
C436        C  0.36111664  0.25731089  0.66278668     0.03200
C437        C  0.38479298  0.25849547  0.64280619    -0.12950
C438        C  0.38651480  0.26076959  0.60212414     0.00700
C439        C  0.36470459  0.26280901  0.58128710    -0.11480
C440        C  0.34047448  0.26101268  0.60098514     0.03190
C441        C  0.33885174  0.25829945  0.64174699    -0.10900
H442        H  0.40223989  0.25821610  0.65912349     0.08780
H443        H  0.36590909  0.26440021  0.54981654     0.06310
H444        H  0.32047011  0.25733498  0.65724782     0.06160
C445        C  0.36219774  0.25939712  0.83097055     0.03200
C446        C  0.38568071  0.26067098  0.85175312    -0.12950
C447        C  0.38643155  0.26247635  0.89262759     0.00700
C448        C  0.36341332  0.26297026  0.91260973    -0.11480
C449        C  0.33906227  0.25993561  0.89198668     0.03190
C450        C  0.33858374  0.25806673  0.85127354    -0.10900
H451        H  0.40360612  0.26084882  0.83602737     0.08780
H452        H  0.36371403  0.26415766  0.94412547     0.06310
H453        H  0.31997690  0.25599688  0.83514332     0.06160
C454        C  0.20965714  0.10680706  0.83037946     0.03200
C455        C  0.20985722  0.08373968  0.84999446    -0.12950
C456        C  0.20787993  0.08197739  0.89069025     0.00700
C457        C  0.20516691  0.10330704  0.91185348    -0.11480
C458        C  0.20607998  0.12717913  0.89247101     0.03190
C459        C  0.20833503  0.12879776  0.85164776    -0.10900
H460        H  0.21122503  0.06697297  0.83336709     0.08780
H461        H  0.20379077  0.10206985  0.94334135     0.06310
H462        H  0.20854432  0.14684403  0.83631851     0.06160
C463        C  0.20868334  0.10523539  0.66257126     0.03200
C464        C  0.20770159  0.08212376  0.64120851    -0.12950
C465        C  0.20586805  0.08174945  0.60037438     0.00700
C466        C  0.20484518  0.10467217  0.58104419    -0.11480
C467        C  0.20726995  0.12854896  0.60228864     0.03190
C468        C  0.20917707  0.12867417  0.64300611    -0.10900
H469        H  0.20799086  0.06430330  0.65646955     0.08780
H470        H  0.20365214  0.10466213  0.54954443     0.06310
H471        H  0.21039298  0.14671827  0.65968860     0.06160
C472        C  0.24619190  0.32613554  0.91181031     0.42520
N473        N  0.25582504  0.30028270  0.95043599     0.01410
C474        C  0.19077412  0.14933827  0.95110559    -0.06460
H475        H  0.11822538  0.19097264  0.97014115     0.06910
C476        C  0.17140682  0.23780603  0.59519135    -0.06810
Co477      Co  0.22498086  0.23750157  0.92602957     0.74180
N478        N  0.16424112  0.20910166  0.95754354    -0.25990
Co479      Co  0.18103450  0.19380124  0.00076079     0.74070
C480        C  0.14110716  0.22201580  0.58199175     0.42630
N481        N  0.24231172  0.28672615  0.56558159     0.01030
N482        N  0.16715317  0.21212398  0.54388493     0.01140
N483        N  0.21853904  0.17893227  0.90221426    -0.46840
H484        H  0.21604992  0.28620731  0.87408368     0.06890
N485        N  0.18103047  0.22556983  0.92889458     0.01420
N486        N  0.19916091  0.17985732  0.54392598     0.01160
C487        C  0.20870305  0.15387355  0.58240632     0.42770
N488        N  0.25883489  0.30335308  0.53684898    -0.25450
C489        C  0.28334227  0.24221370  0.89933126    -0.06370
N490        N  0.26168280  0.32744693  0.94382039    -0.46550
N491        N  0.19332817  0.15269099  0.55035253    -0.46780
C492        C  0.31365464  0.25798420  0.91242543     0.42540
N493        N  0.21255005  0.19348657  0.92860149     0.01410
N494        N  0.29072715  0.27114601  0.53709668    -0.25470
N495        N  0.23746605  0.28148103  0.92469715    -0.25960
N496        N  0.27396240  0.25474365  0.56581860     0.01050
H497        H  0.33680174  0.28955101  0.52469079     0.06940
H498        H  0.23874399  0.19367645  0.62043641     0.06970
N499        N  0.19605368  0.17671989  0.95725201    -0.26010
N500        N  0.18588031  0.23048402  0.56970525    -0.25620
N501        N  0.28773925  0.26790861  0.95065484     0.01410
C502        C  0.13868866  0.21953069  0.91573074     0.42810
C503        C  0.26406456  0.33074071  0.54248156    -0.06880
N504        N  0.21743386  0.19859933  0.56981918    -0.25620
H505        H  0.18090328  0.25210346  0.62004842     0.06960
N506        N  0.16654832  0.23199113  0.90298443    -0.46850
H507        H  0.27752677  0.34939318  0.52424696     0.06940
C508        C  0.31646169  0.26126305  0.57934529     0.42640
C509        C  0.23029793  0.29581508  0.89894253    -0.06370
Co510      Co  0.27390717  0.28629671  0.99366137     0.73820
N511        N  0.23625497  0.30145687  0.59160314    -0.46560
C512        C  0.20568902  0.15098530  0.91448357     0.42910
N513        N  0.31488994  0.27359695  0.94427467    -0.46550
Co514      Co  0.22991596  0.24266168  0.56851753     0.73890
C515        C  0.22453799  0.18415945  0.59552101    -0.06880
C516        C  0.13698091  0.20428540  0.95194211    -0.06440
N517        N  0.26895840  0.24957805  0.92485923    -0.25970
N518        N  0.13998932  0.20643423  0.55015784    -0.46730
H519        H  0.17729462  0.13054667  0.96912573     0.06920
C520        C  0.31806131  0.27621579  0.54289395    -0.06860
Cl521      Cl  0.22746549  0.24005117  0.99725464    -0.49860
C522        C  0.24908901  0.32930962  0.57885990     0.42670
H523        H  0.27378981  0.22795169  0.87445647     0.06880
N524        N  0.28854279  0.24860703  0.59195355    -0.46570
C525        C  0.04625298  0.32604749  0.58119620     0.42520
N526        N  0.51023035  0.30018670  0.54316930     0.01410
C527        C  0.42231963  0.14955446  0.54193689    -0.06460
H528        H  0.03539875  0.18824047  0.52378950     0.06910
C529        C  0.02997507  0.23588762  0.89795588    -0.06810
Co530      Co  0.47749527  0.23750173  0.56769433     0.74180
N531        N  0.50865564  0.20780453  0.53604495    -0.25990
Co532      Co  0.47664605  0.19319500  0.99276487     0.74070
C533        C  0.04398162  0.21959247  0.91097637     0.42510
N534        N  0.50977337  0.28623344  0.92811008     0.01030
N535        N  0.50871768  0.21082691  0.94959605     0.01140
N536        N  0.42453538  0.17923093  0.59114059    -0.46840
H537        H  0.03622090  0.28623836  0.61930718     0.06890
N538        N  0.50869364  0.22446645  0.56478697     0.01420
N539        N  0.44456160  0.17975401  0.94971775     0.01160
C540        C  0.40881434  0.15404527  0.91135539     0.42770
N541        N  0.51018283  0.30308700  0.95684029    -0.25450
C542        C  0.42481627  0.24353191  0.59484785    -0.06370
N543        N  0.03182989  0.32724258  0.54941748    -0.46550
N544        N  0.42301254  0.15270582  0.94327668    -0.46780
C545        C  0.41052711  0.25957678  0.58200583     0.42540
N546        N  0.44521081  0.19363899  0.56492484     0.01410
N547        N  0.44608125  0.27198450  0.95663042    -0.25470
N548        N  0.50969988  0.28140563  0.56896846    -0.25960
N549        N  0.44619588  0.25544565  0.92781905     0.01050
H550        H  0.41898299  0.29112318  0.96897089     0.06940
H551        H  0.41905053  0.19394016  0.87332382     0.06970
N552        N  0.44466880  0.17676914  0.53613539    -0.26010
N553        N  0.50856800  0.22925215  0.92375728    -0.25620
N554        N  0.44595576  0.26888490  0.54334138     0.01410
C555        C  0.04378628  0.21668822  0.57855221     0.42810
C556        C  0.03268342  0.33025180  0.95128343    -0.06880
N557        N  0.44524741  0.19859519  0.92389310    -0.25620
H558        H  0.03484833  0.25006748  0.87301713     0.06960
N559        N  0.02914414  0.23003274  0.59106872    -0.46850
H560        H  0.03816742  0.34903554  0.96951526     0.06940
C561        C  0.41078870  0.26280993  0.91409432     0.42640
C562        C  0.03153320  0.29577086  0.59443635    -0.06370
Co563      Co  0.47807901  0.28664816  0.00009452     0.73820
N564        N  0.03066505  0.30061431  0.90215531    -0.46560
C565        C  0.40911945  0.15133590  0.57848539     0.42910
N566        N  0.42472047  0.27492468  0.54994715    -0.46550
Co567      Co  0.47745368  0.24241927  0.92513168     0.73890
C568        C  0.42356509  0.18433522  0.89826951    -0.06880
C569        C  0.03042084  0.20198540  0.54194304    -0.06440
N570        N  0.44629799  0.25050707  0.56909842    -0.25970
N571        N  0.02973723  0.20448175  0.94310498    -0.46730
H572        H  0.41681772  0.13075611  0.52372682     0.06920
C573        C  0.42414847  0.27756702  0.95073562    -0.06860
Cl574      Cl  0.47740935  0.23994534  0.99642066    -0.49860
C575        C  0.04616266  0.32844744  0.91501029     0.42670
H576        H  0.42004063  0.22923787  0.61963189     0.06880
N577        N  0.42566127  0.24970623  0.90154811    -0.46570
C578        C  0.24583862  0.42242613  0.58169662     0.42520
N579        N  0.25530162  0.45773551  0.54274369     0.01410
C580        C  0.19118103  0.04472143  0.54154915    -0.06460
H581        H  0.11780194  0.43181027  0.52277945     0.06910
C582        C  0.17106760  0.43707619  0.89737210    -0.06810
Co583      Co  0.22473882  0.49013106  0.56698451     0.74180
N584        N  0.16399870  0.45863869  0.53521804    -0.25990
Co585      Co  0.18124907  0.49059574  0.99203656     0.74070
C586        C  0.14078321  0.42300741  0.91051009     0.42630
N587        N  0.24199303  0.45797528  0.92723514     0.01030
N588        N  0.16713117  0.45847860  0.94891160     0.01140
N589        N  0.21863425  0.04258541  0.59074149    -0.46840
H590        H  0.21573301  0.43242610  0.61932721     0.06890
N591        N  0.18059649  0.45867907  0.56399854     0.01420
N592        N  0.19968551  0.02258695  0.94900983     0.01160
C593        C  0.20942752  0.05817015  0.91063470     0.42770
N594        N  0.25844015  0.45770263  0.95603029    -0.25450
C595        C  0.28312164  0.04314357  0.59412570    -0.06370
N596        N  0.26121609  0.43647133  0.54957318    -0.46550
N597        N  0.19401433  0.04404472  0.94262897    -0.46780
C598        C  0.31345146  0.05757595  0.58128754     0.42540
N599        N  0.21274258  0.02211552  0.56428362     0.01410
N600        N  0.29076033  0.02176425  0.95593065    -0.25470
N601        N  0.23693867  0.45829166  0.56843963    -0.25960
N602        N  0.27404456  0.02146533  0.92712046     0.01050
H603        H  0.33690109  0.04919189  0.96824150     0.06940
H604        H  0.23928079  0.04808381  0.87254355     0.06970
N605        N  0.19641893  0.02258562  0.53549243    -0.26010
N606        N  0.18575586  0.45861418  0.92307190    -0.25620
N607        N  0.28763112  0.02198511  0.54268129     0.01410
C608        C  0.13778347  0.42351335  0.57755889     0.42810
C609        C  0.26363794  0.43552055  0.95022828    -0.06880
N610        N  0.21787941  0.02192944  0.92312905    -0.25620
H611        H  0.18039992  0.43216836  0.87240938     0.06960
N612        N  0.16571296  0.43823435  0.59022509    -0.46850
H613        H  0.27707209  0.43022328  0.96844229     0.06940
C614        C  0.31660447  0.05708110  0.91338377     0.42640
C615        C  0.22987566  0.43690363  0.59438731    -0.06370
Co616      Co  0.27366595  0.48980439  0.99944638     0.73820
N617        N  0.23599739  0.43730567  0.90101783    -0.46560
C618        C  0.20590813  0.05781255  0.57828523     0.42910
N619        N  0.31478704  0.04335410  0.54928243    -0.46550
Co620      Co  0.22993074  0.48996828  0.92438488     0.73890
C621        C  0.22512211  0.04352030  0.89748713    -0.06880
C622        C  0.13647356  0.43682595  0.54097493    -0.06440
N623        N  0.26880171  0.02156819  0.56840745    -0.25970
N624        N  0.13984766  0.43737021  0.94253525    -0.46730
H625        H  0.17774377  0.05009034  0.52345752     0.06920
C626        C  0.31815425  0.04384482  0.95002155    -0.06860
Cl627      Cl  0.22741117  0.49010233  0.99570497    -0.49860
C628        C  0.24876816  0.42215361  0.91367073     0.42670
H629        H  0.27348855  0.04788503  0.61889560     0.06880
N630        N  0.28867331  0.04199414  0.90085804    -0.46570
C631        C  0.18386641  0.08845750  0.76764631    -0.20240
C632        C  0.20989324  0.10716104  0.78742698    -0.06810
C633        C  0.23570505  0.12488212  0.76616071     0.14060
C634        C  0.23482805  0.12367415  0.72530977    -0.20290
C635        C  0.20879019  0.10494337  0.70553462    -0.06810
C636        C  0.18297434  0.08721891  0.72683973     0.14050
C637        C  0.15442767  0.06747901  0.70652362    -0.23640
H638        H  0.16417675  0.07485142  0.78427650     0.15340
H639        H  0.25449463  0.13728591  0.70869251     0.15370
C640        C  0.26417106  0.14464719  0.78657973    -0.23590
H641        H  0.13627953  0.05560905  0.72758958     0.05580
H642        H  0.15648400  0.05100272  0.68876340     0.08810
H643        H  0.14854969  0.08065399  0.68726882     0.08810
H644        H  0.27012964  0.13145376  0.80567553     0.08790
H645        H  0.26192480  0.16093082  0.80454865     0.08790
H646        H  0.28232386  0.15670412  0.76557993     0.05560
C647        C  0.36257192  0.28110200  0.72552070    -0.20240
C648        C  0.36065187  0.25688183  0.70586816    -0.06810
C649        C  0.35918045  0.23337589  0.72747446     0.14060
C650        C  0.36003138  0.23490523  0.76832195    -0.20290
C651        C  0.36202459  0.25917656  0.78791641    -0.06810
C652        C  0.36335764  0.28260215  0.76630671     0.14050
C653        C  0.36650233  0.30957755  0.78607555    -0.23640
H654        H  0.36390291  0.29912883  0.70876220     0.15340
H655        H  0.35876373  0.21694272  0.78512683     0.15370
C656        C  0.35573637  0.20628465  0.70770536    -0.23590
H657        H  0.36866510  0.32628853  0.76464282     0.05580
H658        H  0.38634334  0.31949648  0.80474682     0.08810
H659        H  0.34698620  0.30390138  0.80422661     0.08810
H660        H  0.37517511  0.21170176  0.68953419     0.08790
H661        H  0.33588123  0.19653511  0.68906622     0.08790
H662        H  0.35336961  0.18950117  0.72915169     0.05560
C663        C  0.34018137  0.10939990  0.76756063    -0.20240
C664        C  0.36139175  0.10558214  0.78705959    -0.06810
C665        C  0.38259801  0.10264226  0.76541554     0.14060
C666        C  0.38208270  0.10363813  0.72463550    -0.20290
C667        C  0.36083389  0.10736871  0.70508735    -0.06810
C668        C  0.33971136  0.11046487  0.72672775     0.14050
C669        C  0.31724414  0.11573032  0.70692507    -0.23640
H670        H  0.32418690  0.11191670  0.78441530     0.15340
H671        H  0.39808708  0.10108227  0.70780935     0.15370
C672        C  0.40529589  0.09771818  0.78521404    -0.23590
H673        H  0.30330858  0.11897678  0.72833780     0.05580
H674        H  0.30266342  0.09673659  0.68838863     0.08810
H675        H  0.32841842  0.13565280  0.68858448     0.08810
H676        H  0.39433567  0.07777080  0.80353880     0.08790
H677        H  0.41967675  0.11678806  0.80376725     0.08790
H678        H  0.41940474  0.09474045  0.76380128     0.05560
C679        C  0.09009948  0.24174835  0.76832170    -0.20240
C680        C  0.09397735  0.22055753  0.78786275    -0.06810
C681        C  0.09647405  0.19914126  0.76595083     0.14060
C682        C  0.09537570  0.19979652  0.72518755    -0.20290
C683        C  0.09155182  0.22100719  0.70567205    -0.06810
C684        C  0.08884520  0.24229370  0.72753450     0.14050
C685        C  0.08570734  0.26625621  0.70824579    -0.23640
H686        H  0.08809401  0.25805638  0.78520774     0.15340
H687        H  0.09730211  0.18343825  0.70826540     0.15370
C688        C  0.09904657  0.17480309  0.78511672    -0.23590
H689        H  0.08622923  0.28221274  0.72984000     0.05580
H690        H  0.06451038  0.25699402  0.69267223     0.08810
H691        H  0.10393458  0.27834729  0.68742801     0.08810
H692        H  0.08074040  0.16291780  0.80590443     0.08790
H693        H  0.12020826  0.18365305  0.80065090     0.08790
H694        H  0.09818476  0.15873013  0.76344472     0.05560
C695        C  0.11671822  0.37907384  0.76747637    -0.20240
C696        C  0.09128622  0.37402533  0.78716228    -0.06810
C697        C  0.06707981  0.37089549  0.76538232     0.14060
C698        C  0.06870737  0.37188830  0.72456270    -0.20290
C699        C  0.09410640  0.37675593  0.70490592    -0.06810
C700        C  0.11862756  0.38088818  0.72674960     0.14050
C701        C  0.14663665  0.38640054  0.70764433    -0.23640
H702        H  0.13531026  0.38174105  0.78421723     0.15340
H703        H  0.05012809  0.36920254  0.70777089     0.15370
C704        C  0.04002974  0.36793120  0.78471840    -0.23590
H705        H  0.16267983  0.38761517  0.72951226     0.05580
H706        H  0.15730787  0.40768132  0.69234728     0.08810
H707        H  0.14205493  0.36853027  0.68676888     0.08810
H708        H  0.04621675  0.38622323  0.80553700     0.08790
H709        H  0.02802301  0.34679030  0.80023846     0.08790
H710        H  0.02465495  0.36854634  0.76315064     0.05560
C711        C  0.27121688  0.37993681  0.72548366    -0.20240
C712        C  0.24544462  0.37320284  0.70547079    -0.06810
C713        C  0.21968723  0.36571299  0.72654023     0.14060
C714        C  0.22061745  0.36669706  0.76740246    -0.20290
C715        C  0.24652352  0.37391597  0.78743884    -0.06810
C716        C  0.27199335  0.38010061  0.76632748     0.14050
C717        C  0.30003589  0.38718706  0.78685124    -0.23640
H718        H  0.29078601  0.38516878  0.70903235     0.15340
H719        H  0.20099023  0.36128718  0.78380872     0.15370
C720        C  0.19110309  0.35560647  0.70579981    -0.23590
H721        H  0.31797247  0.39210638  0.76590686     0.05580
H722        H  0.29668730  0.36828797  0.80481043     0.08810
H723        H  0.30704396  0.40657157  0.80591481     0.08810
H724        H  0.18600373  0.33634517  0.68734200     0.08790
H725        H  0.19263277  0.37342569  0.68705238     0.08790
H726        H  0.17276647  0.34895242  0.72664645     0.05560
C727        C  0.24596771  0.87403034  0.16249466     0.03200
C728        C  0.24547417  0.89697409  0.14274783    -0.12950
C729        C  0.24739806  0.89866013  0.10196589     0.00700
C730        C  0.24993928  0.87716575  0.08095429    -0.11480
C731        C  0.24910040  0.85339021  0.10053346     0.03190
C732        C  0.24733547  0.85208696  0.14131469    -0.10900
H733        H  0.24408781  0.91375917  0.15929859     0.08780
H734        H  0.25109479  0.87818171  0.04944700     0.06310
H735        H  0.24716616  0.83407791  0.15670141     0.06160
C736        C  0.24633648  0.87394293  0.33044079     0.03200
C737        C  0.24678719  0.89705038  0.35122208    -0.12950
C738        C  0.24865979  0.89791512  0.39209700     0.00700
C739        C  0.24988149  0.87530140  0.41204105    -0.11480
C740        C  0.24774997  0.85132908  0.39138763     0.03190
C741        C  0.24607748  0.85085560  0.35064669    -0.10900
H742        H  0.24640431  0.91464907  0.33549460     0.08780
H743        H  0.25101579  0.87562119  0.44355692     0.06310
H744        H  0.24503165  0.83270501  0.33442597     0.06160
C745        C  0.09170995  0.87434065  0.33040144     0.03200
C746        C  0.11464338  0.89792149  0.35009517    -0.12950
C747        C  0.11529169  0.89912126  0.39083790     0.00700
C748        C  0.09221194  0.87698782  0.41221274    -0.11480
C749        C  0.06980721  0.85257127  0.39291441     0.03190
C750        C  0.07011449  0.85105233  0.35208814    -0.10900
H751        H  0.13193245  0.91560455  0.33357313     0.08780
H752        H  0.09251798  0.87801741  0.44373953     0.06310
H753        H  0.05343221  0.83184206  0.33721301     0.06160
C754        C  0.09371996  0.87625633  0.16168068     0.03200
C755        C  0.11441919  0.90018928  0.14007868    -0.12950
C756        C  0.11371337  0.89961796  0.09927361     0.00700
C757        C  0.09083366  0.87572610  0.07985426    -0.11480
C758        C  0.06991549  0.85163374  0.10116971     0.03190
C759        C  0.07171435  0.85189618  0.14194556    -0.10900
H760        H  0.13080835  0.91961033  0.15491050     0.08780
H761        H  0.09001257  0.87531640  0.04831617     0.06310
H762        H  0.05560973  0.83335855  0.15852938     0.06160
C763        C  0.09174892  0.72085086  0.16250399     0.03200
C764        C  0.11568816  0.72233120  0.14268193    -0.12950
C765        C  0.11556963  0.72021851  0.10196423     0.00700
C766        C  0.09134184  0.71694036  0.08078802    -0.11480
C767        C  0.06781779  0.71671707  0.10028242     0.03190
C768        C  0.06782442  0.71792392  0.14109721    -0.10900
H769        H  0.13422663  0.72462163  0.15918357     0.08780
H770        H  0.09142564  0.71595617  0.04927730     0.06310
H771        H  0.04886955  0.71598967  0.15619012     0.06160
C772        C  0.09334605  0.72027675  0.33106665     0.03200
C773        C  0.06957561  0.71935852  0.35060894    -0.12950
C774        C  0.06799371  0.71813128  0.39134809     0.00700
C775        C  0.08998124  0.71686643  0.41278225    -0.11480
C776        C  0.11458783  0.71916282  0.39362340     0.03190
C777        C  0.11642944  0.72155989  0.35286985    -0.10900
H778        H  0.05207264  0.71927751  0.33396049     0.08780
H779        H  0.08871564  0.71572483  0.44428103     0.06310
H780        H  0.13574162  0.72418503  0.33808439     0.06160
C781        C  0.36149133  0.60548610  0.33007957     0.03200
C782        C  0.38389690  0.62903662  0.35025465    -0.12950
C783        C  0.38530148  0.62869515  0.39096483     0.00700
C784        C  0.36400280  0.60446006  0.41167549    -0.11480
C785        C  0.34048365  0.58142362  0.39180232     0.03190
C786        C  0.33932466  0.58210661  0.35093066    -0.10900
H787        H  0.40052415  0.64745837  0.33402208     0.08780
H788        H  0.36495091  0.60423367  0.44318438     0.06310
H789        H  0.32155727  0.56420830  0.33525959     0.06160
C790        C  0.36073547  0.60692567  0.16204505     0.03200
C791        C  0.38399479  0.62905693  0.14099698    -0.12950
C792        C  0.38492064  0.62744482  0.10020965     0.00700
C793        C  0.36240818  0.60330133  0.08054745    -0.11480
C794        C  0.33856069  0.58162473  0.10142163     0.03190
C795        C  0.33804401  0.58343307  0.14211170    -0.10900
H796        H  0.40150970  0.64732282  0.15649025     0.08780
H797        H  0.36274635  0.60205538  0.04906797     0.06310
H798        H  0.32021457  0.56621095  0.15848953     0.06160
C799        C  0.36111663  0.75731088  0.16278668     0.03200
C800        C  0.38479298  0.75849546  0.14280619    -0.12950
C801        C  0.38651480  0.76076958  0.10212414     0.00700
C802        C  0.36470458  0.76280900  0.08128710    -0.11480
C803        C  0.34047448  0.76101267  0.10098514     0.03190
C804        C  0.33885173  0.75829945  0.14174699    -0.10900
H805        H  0.40223988  0.75821609  0.15912349     0.08780
H806        H  0.36590909  0.76440020  0.04981654     0.06310
H807        H  0.32047010  0.75733497  0.15724782     0.06160
C808        C  0.36219773  0.75939711  0.33097055     0.03200
C809        C  0.38568071  0.76067098  0.35175312    -0.12950
C810        C  0.38643155  0.76247635  0.39262759     0.00700
C811        C  0.36341331  0.76297026  0.41260973    -0.11480
C812        C  0.33906226  0.75993560  0.39198668     0.03190
C813        C  0.33858374  0.75806672  0.35127354    -0.10900
H814        H  0.40360612  0.76084882  0.33602738     0.08780
H815        H  0.36371403  0.76415766  0.44412547     0.06310
H816        H  0.31997690  0.75599688  0.33514332     0.06160
C817        C  0.20965714  0.60680706  0.33037946     0.03200
C818        C  0.20985722  0.58373968  0.34999446    -0.12950
C819        C  0.20787993  0.58197739  0.39069024     0.00700
C820        C  0.20516691  0.60330704  0.41185348    -0.11480
C821        C  0.20607997  0.62717913  0.39247101     0.03190
C822        C  0.20833502  0.62879776  0.35164776    -0.10900
H823        H  0.21122503  0.56697297  0.33336709     0.08780
H824        H  0.20379077  0.60206985  0.44334135     0.06310
H825        H  0.20854431  0.64684403  0.33631851     0.06160
C826        C  0.20868333  0.60523539  0.16257126     0.03200
C827        C  0.20770159  0.58212376  0.14120851    -0.12950
C828        C  0.20586804  0.58174945  0.10037438     0.00700
C829        C  0.20484518  0.60467216  0.08104419    -0.11480
C830        C  0.20726994  0.62854896  0.10228864     0.03190
C831        C  0.20917706  0.62867417  0.14300611    -0.10900
H832        H  0.20799085  0.56430329  0.15646956     0.08780
H833        H  0.20365213  0.60466213  0.04954443     0.06310
H834        H  0.21039297  0.64671827  0.15968860     0.06160
C835        C  0.24619190  0.82613554  0.41181031     0.42520
N836        N  0.25582504  0.80028270  0.45043600     0.01410
C837        C  0.19077411  0.64933827  0.45110559    -0.06460
H838        H  0.11822538  0.69097264  0.47014115     0.06910
C839        C  0.17140682  0.73780603  0.09519135    -0.06810
Co840      Co  0.22498085  0.73750157  0.42602957     0.74180
N841        N  0.16424111  0.70910166  0.45754354    -0.25990
Co842      Co  0.18103449  0.69380124  0.50076079     0.74070
C843        C  0.14110715  0.72201580  0.08199176     0.42630
N844        N  0.24231172  0.78672615  0.06558159     0.01030
N845        N  0.16715316  0.71212398  0.04388493     0.01140
N846        N  0.21853903  0.67893227  0.40221427    -0.46840
H847        H  0.21604991  0.78620731  0.37408369     0.06890
N848        N  0.18103047  0.72556982  0.42889458     0.01420
N849        N  0.19916091  0.67985732  0.04392598     0.01160
C850        C  0.20870304  0.65387355  0.08240632     0.42770
N851        N  0.25883489  0.80335308  0.03684898    -0.25450
C852        C  0.28334227  0.74221370  0.39933126    -0.06370
N853        N  0.26168280  0.82744692  0.44382039    -0.46550
N854        N  0.19332817  0.65269099  0.05035253    -0.46780
C855        C  0.31365464  0.75798420  0.41242543     0.42540
N856        N  0.21255005  0.69348657  0.42860149     0.01410
N857        N  0.29072714  0.77114601  0.03709668    -0.25470
N858        N  0.23746604  0.78148103  0.42469715    -0.25960
N859        N  0.27396240  0.75474364  0.06581859     0.01050
H860        H  0.33680173  0.78955100  0.02469078     0.06940
H861        H  0.23874399  0.69367644  0.12043641     0.06970
N862        N  0.19605367  0.67671988  0.45725201    -0.26010
N863        N  0.18588030  0.73048402  0.06970525    -0.25620
N864        N  0.28773925  0.76790861  0.45065484     0.01410
C865        C  0.13868866  0.71953069  0.41573074     0.42810
C866        C  0.26406456  0.83074071  0.04248156    -0.06880
N867        N  0.21743386  0.69859933  0.06981918    -0.25620
H868        H  0.18090328  0.75210346  0.12004842     0.06960
N869        N  0.16654832  0.73199113  0.40298443    -0.46850
H870        H  0.27752677  0.84939317  0.02424696     0.06940
C871        C  0.31646168  0.76126304  0.07934529     0.42640
C872        C  0.23029793  0.79581508  0.39894253    -0.06370
Co873      Co  0.27390716  0.78629670  0.49366137     0.73820
N874        N  0.23625496  0.80145687  0.09160314    -0.46560
C875        C  0.20568901  0.65098530  0.41448357     0.42910
N876        N  0.31488993  0.77359695  0.44427467    -0.46550
Co877      Co  0.22991596  0.74266168  0.06851753     0.73890
C878        C  0.22453798  0.68415944  0.09552101    -0.06880
C879        C  0.13698091  0.70428540  0.45194211    -0.06440
N880        N  0.26895840  0.74957805  0.42485924    -0.25970
N881        N  0.13998931  0.70643423  0.05015784    -0.46730
H882        H  0.17729461  0.63054667  0.46912573     0.06920
C883        C  0.31806130  0.77621579  0.04289395    -0.06860
Cl884      Cl  0.22746548  0.74005117  0.49725464    -0.49860
C885        C  0.24908901  0.82930961  0.07885990     0.42670
H886        H  0.27378981  0.72795169  0.37445647     0.06880
N887        N  0.28854278  0.74860702  0.09195355    -0.46570
C888        C  0.04625298  0.82604749  0.08119620     0.42520
N889        N  0.51023034  0.80018670  0.04316930     0.01410
C890        C  0.42231963  0.64955445  0.04193688    -0.06460
H891        H  0.03539875  0.68824047  0.02378950     0.06910
C892        C  0.02997507  0.73588763  0.39795588    -0.06810
Co893      Co  0.47749526  0.73750172  0.06769432     0.74180
N894        N  0.50865564  0.70780452  0.03604495    -0.25990
Co895      Co  0.47664605  0.69319500  0.49276487     0.74070
C896        C  0.04398162  0.71959248  0.41097637     0.42510
N897        N  0.50977337  0.78623344  0.42811009     0.01030
N898        N  0.50871768  0.71082691  0.44959605     0.01140
N899        N  0.42453537  0.67923092  0.09114059    -0.46840
H900        H  0.03622090  0.78623835  0.11930717     0.06890
N901        N  0.50869363  0.72446645  0.06478697     0.01420
N902        N  0.44456160  0.67975401  0.44971775     0.01160
C903        C  0.40881434  0.65404527  0.41135539     0.42770
N904        N  0.51018283  0.80308700  0.45684030    -0.25450
C905        C  0.42481626  0.74353191  0.09484785    -0.06370
N906        N  0.03182989  0.82724258  0.04941747    -0.46550
N907        N  0.42301254  0.65270582  0.44327668    -0.46780
C908        C  0.41052711  0.75957678  0.08200583     0.42540
N909        N  0.44521080  0.69363898  0.06492484     0.01410
N910        N  0.44608124  0.77198450  0.45663042    -0.25470
N911        N  0.50969988  0.78140563  0.06896846    -0.25960
N912        N  0.44619588  0.75544565  0.42781905     0.01050
H913        H  0.41898298  0.79112318  0.46897089     0.06940
H914        H  0.41905053  0.69394016  0.37332382     0.06970
N915        N  0.44466880  0.67676914  0.03613539    -0.26010
N916        N  0.50856800  0.72925215  0.42375728    -0.25620
N917        N  0.44595576  0.76888490  0.04334137     0.01410
C918        C  0.04378628  0.71668822  0.07855221     0.42810
C919        C  0.03268343  0.83025181  0.45128343    -0.06880
N920        N  0.44524741  0.69859519  0.42389310    -0.25620
H921        H  0.03484833  0.75006749  0.37301713     0.06960
N922        N  0.02914414  0.73003274  0.09106872    -0.46850
H923        H  0.03816742  0.84903554  0.46951526     0.06940
C924        C  0.41078870  0.76280993  0.41409432     0.42640
C925        C  0.03153320  0.79577086  0.09443635    -0.06370
Co926      Co  0.47807901  0.78664817  0.50009452     0.73820
N927        N  0.03066505  0.80061431  0.40215532    -0.46560
C928        C  0.40911945  0.65133589  0.07848539     0.42910
N929        N  0.42472047  0.77492468  0.04994715    -0.46550
Co930      Co  0.47745368  0.74241927  0.42513168     0.73890
C931        C  0.42356509  0.68433522  0.39826951    -0.06880
C932        C  0.03042084  0.70198540  0.04194304    -0.06440
N933        N  0.44629798  0.75050707  0.06909842    -0.25970
N934        N  0.02973723  0.70448176  0.44310498    -0.46730
H935        H  0.41681771  0.63075610  0.02372682     0.06920
C936        C  0.42414846  0.77756702  0.45073562    -0.06860
Cl937      Cl  0.47740935  0.73994534  0.49642067    -0.49860
C938        C  0.04616267  0.82844745  0.41501029     0.42670
H939        H  0.42004063  0.72923786  0.11963189     0.06880
N940        N  0.42566127  0.74970623  0.40154811    -0.46570
C941        C  0.24583862  0.92242613  0.08169662     0.42520
N942        N  0.25530162  0.95773550  0.04274369     0.01410
C943        C  0.19118103  0.54472143  0.04154915    -0.06460
H944        H  0.11780194  0.93181026  0.02277946     0.06910
C945        C  0.17106761  0.93707619  0.39737209    -0.06810
Co946      Co  0.22473882  0.99013106  0.06698452     0.74180
N947        N  0.16399870  0.95863869  0.03521804    -0.25990
Co948      Co  0.18124908  0.99059575  0.49203655     0.74070
C949        C  0.14078322  0.92300741  0.41051008     0.42630
N950        N  0.24199304  0.95797528  0.42723513     0.01030
N951        N  0.16713118  0.95847860  0.44891159     0.01140
N952        N  0.21863424  0.54258541  0.09074149    -0.46840
H953        H  0.21573301  0.93242610  0.11932721     0.06890
N954        N  0.18059649  0.95867907  0.06399855     0.01420
N955        N  0.19968551  0.52258695  0.44900983     0.01160
C956        C  0.20942752  0.55817015  0.41063470     0.42770
N957        N  0.25844016  0.95770264  0.45603028    -0.25450
C958        C  0.28312164  0.54314356  0.09412570    -0.06370
N959        N  0.26121609  0.93647133  0.04957318    -0.46550
N960        N  0.19401433  0.54404472  0.44262896    -0.46780
C961        C  0.31345145  0.55757595  0.08128754     0.42540
N962        N  0.21274257  0.52211552  0.06428363     0.01410
N963        N  0.29076034  0.52176426  0.45593065    -0.25470
N964        N  0.23693867  0.95829166  0.06843963    -0.25960
N965        N  0.27404456  0.52146533  0.42712046     0.01050
H966        H  0.33690110  0.54919190  0.46824150     0.06940
H967        H  0.23928079  0.54808381  0.37254355     0.06970
N968        N  0.19641892  0.52258562  0.03549244    -0.26010
N969        N  0.18575587  0.95861418  0.42307189    -0.25620
N970        N  0.28763111  0.52198510  0.04268130     0.01410
C971        C  0.13778347  0.92351335  0.07755889     0.42810
C972        C  0.26363795  0.93552055  0.45022827    -0.06880
N973        N  0.21787942  0.52192944  0.42312904    -0.25620
H974        H  0.18039993  0.93216836  0.37240938     0.06960
N975        N  0.16571296  0.93823435  0.09022509    -0.46850
H976        H  0.27707210  0.93022328  0.46844229     0.06940
C977        C  0.31660448  0.55708110  0.41338377     0.42640
C978        C  0.22987566  0.93690363  0.09438731    -0.06370
Co979      Co  0.27366596  0.98980439  0.49944638     0.73820
N980        N  0.23599740  0.93730567  0.40101783    -0.46560
C981        C  0.20590813  0.55781255  0.07828523     0.42910
N982        N  0.31478703  0.54335410  0.04928243    -0.46550
Co983      Co  0.22993075  0.98996828  0.42438488     0.73890
C984        C  0.22512211  0.54352030  0.39748713    -0.06880
C985        C  0.13647356  0.93682594  0.04097493    -0.06440
N986        N  0.26880171  0.52156819  0.06840746    -0.25970
N987        N  0.13984767  0.93737021  0.44253524    -0.46730
H988        H  0.17774376  0.55009033  0.02345752     0.06920
C989        C  0.31815425  0.54384482  0.45002155    -0.06860
Cl990      Cl  0.22741118  0.99010233  0.49570497    -0.49860
C991        C  0.24876816  0.92215361  0.41367073     0.42670
H992        H  0.27348855  0.54788503  0.11889560     0.06880
N993        N  0.28867331  0.54199414  0.40085804    -0.46570
C994        C  0.18386640  0.58845752  0.26764631    -0.20240
C995        C  0.20989324  0.60716103  0.28742698    -0.06810
C996        C  0.23570504  0.62488210  0.26616071     0.14060
C997        C  0.23482805  0.62367413  0.22530977    -0.20290
C998        C  0.20879019  0.60494337  0.20553462    -0.06810
C999        C  0.18297433  0.58721892  0.22683973     0.14050
C1000       C  0.15442766  0.56747905  0.20652362    -0.23640
H1001       H  0.16417673  0.57485145  0.28427650     0.15340
H1002       H  0.25449463  0.63728587  0.20869251     0.15370
C1003       C  0.26417106  0.64464715  0.28657973    -0.23590
H1004       H  0.13627950  0.55560910  0.22758958     0.05580
H1005       H  0.15648396  0.55100275  0.18876340     0.08810
H1006       H  0.14854969  0.58065403  0.18726882     0.08810
H1007       H  0.27012963  0.63145371  0.30567553     0.08790
H1008       H  0.26192481  0.66093080  0.30454866     0.08790
H1009       H  0.28232387  0.65670407  0.26557993     0.05560
C1010       C  0.36257191  0.78110199  0.22552070    -0.20240
C1011       C  0.36065186  0.75688183  0.20586816    -0.06810
C1012       C  0.35918044  0.73337588  0.22747446     0.14060
C1013       C  0.36003137  0.73490523  0.26832195    -0.20290
C1014       C  0.36202459  0.75917655  0.28791641    -0.06810
C1015       C  0.36335763  0.78260214  0.26630670     0.14050
C1016       C  0.36650232  0.80957755  0.28607555    -0.23640
H1017       H  0.36390290  0.79912882  0.20876220     0.15340
H1018       H  0.35876373  0.71694272  0.28512683     0.15370
C1019       C  0.35573637  0.70628464  0.20770536    -0.23590
H1020       H  0.36866509  0.82628852  0.26464282     0.05580
H1021       H  0.38634333  0.81949648  0.30474682     0.08810
H1022       H  0.34698619  0.80390136  0.30422661     0.08810
H1023       H  0.37517511  0.71170176  0.18953419     0.08790
H1024       H  0.33588123  0.69653510  0.18906622     0.08790
H1025       H  0.35336961  0.68950116  0.22915169     0.05560
C1026       C  0.34018137  0.60939990  0.26756063    -0.20240
C1027       C  0.36139175  0.60558214  0.28705959    -0.06810
C1028       C  0.38259802  0.60264226  0.26541554     0.14060
C1029       C  0.38208270  0.60363814  0.22463550    -0.20290
C1030       C  0.36083389  0.60736871  0.20508735    -0.06810
C1031       C  0.33971136  0.61046486  0.22672775     0.14050
C1032       C  0.31724414  0.61573031  0.20692507    -0.23640
H1033       H  0.32418690  0.61191670  0.28441530     0.15340
H1034       H  0.39808708  0.60108228  0.20780935     0.15370
C1035       C  0.40529589  0.59771819  0.28521404    -0.23590
H1036       H  0.30330857  0.61897678  0.22833780     0.05580
H1037       H  0.30266341  0.59673658  0.18838863     0.08810
H1038       H  0.32841842  0.63565279  0.18858448     0.08810
H1039       H  0.39433568  0.57777081  0.30353880     0.08790
H1040       H  0.41967676  0.61678807  0.30376725     0.08790
H1041       H  0.41940474  0.59474046  0.26380127     0.05560
C1042       C  0.09009948  0.74174835  0.26832170    -0.20240
C1043       C  0.09397734  0.72055753  0.28786275    -0.06810
C1044       C  0.09647404  0.69914125  0.26595083     0.14060
C1045       C  0.09537569  0.69979652  0.22518755    -0.20290
C1046       C  0.09155181  0.72100719  0.20567205    -0.06810
C1047       C  0.08884521  0.74229371  0.22753450     0.14050
C1048       C  0.08570735  0.76625622  0.20824578    -0.23640
H1049       H  0.08809402  0.75805639  0.28520774     0.15340
H1050       H  0.09730210  0.68343825  0.20826540     0.15370
C1051       C  0.09904656  0.67480309  0.28511672    -0.23590
H1052       H  0.08622924  0.78221275  0.22984000     0.05580
H1053       H  0.06451039  0.75699403  0.19267223     0.08810
H1054       H  0.10393459  0.77834730  0.18742801     0.08810
H1055       H  0.08074038  0.66291779  0.30590443     0.08790
H1056       H  0.12020824  0.68365304  0.30065090     0.08790
H1057       H  0.09818474  0.65873012  0.26344472     0.05560
C1058       C  0.11671823  0.87907383  0.26747637    -0.20240
C1059       C  0.09128623  0.87402532  0.28716228    -0.06810
C1060       C  0.06707982  0.87089548  0.26538232     0.14060
C1061       C  0.06870738  0.87188828  0.22456270    -0.20290
C1062       C  0.09410641  0.87675592  0.20490592    -0.06810
C1063       C  0.11862757  0.88088816  0.22674960     0.14050
C1064       C  0.14663666  0.88640053  0.20764432    -0.23640
H1065       H  0.13531027  0.88174104  0.28421723     0.15340
H1066       H  0.05012810  0.86920252  0.20777090     0.15370
C1067       C  0.04002975  0.86793118  0.28471840    -0.23590
H1068       H  0.16267983  0.88761515  0.22951225     0.05580
H1069       H  0.15730788  0.90768130  0.19234727     0.08810
H1070       H  0.14205493  0.86853026  0.18676888     0.08810
H1071       H  0.04621676  0.88622321  0.30553700     0.08790
H1072       H  0.02802302  0.84679028  0.30023846     0.08790
H1073       H  0.02465496  0.86854632  0.26315064     0.05560
C1074       C  0.27121688  0.87993681  0.22548366    -0.20240
C1075       C  0.24544463  0.87320283  0.20547079    -0.06810
C1076       C  0.21968723  0.86571298  0.22654023     0.14060
C1077       C  0.22061745  0.86669705  0.26740246    -0.20290
C1078       C  0.24652352  0.87391596  0.28743884    -0.06810
C1079       C  0.27199335  0.88010062  0.26632748     0.14050
C1080       C  0.30003589  0.88718707  0.28685124    -0.23640
H1081       H  0.29078602  0.88516880  0.20903236     0.15340
H1082       H  0.20099023  0.86128716  0.28380872     0.15370
C1083       C  0.19110309  0.85560645  0.20579980    -0.23590
H1084       H  0.31797248  0.89210640  0.26590687     0.05580
H1085       H  0.29668731  0.86828799  0.30481043     0.08810
H1086       H  0.30704396  0.90657159  0.30591481     0.08810
H1087       H  0.18600373  0.83634514  0.18734200     0.08790
H1088       H  0.19263277  0.87342566  0.18705237     0.08790
H1089       H  0.17276647  0.84895239  0.22664645     0.05560
C1090       C  0.24596771  0.87403034  0.66249466     0.03200
C1091       C  0.24547417  0.89697409  0.64274783    -0.12950
C1092       C  0.24739806  0.89866013  0.60196588     0.00700
C1093       C  0.24993928  0.87716576  0.58095429    -0.11480
C1094       C  0.24910040  0.85339021  0.60053346     0.03190
C1095       C  0.24733547  0.85208696  0.64131469    -0.10900
H1096       H  0.24408781  0.91375917  0.65929859     0.08780
H1097       H  0.25109479  0.87818171  0.54944700     0.06310
H1098       H  0.24716615  0.83407791  0.65670141     0.06160
C1099       C  0.24633648  0.87394293  0.83044079     0.03200
C1100       C  0.24678719  0.89705038  0.85122208    -0.12950
C1101       C  0.24865979  0.89791512  0.89209700     0.00700
C1102       C  0.24988149  0.87530140  0.91204105    -0.11480
C1103       C  0.24774997  0.85132908  0.89138763     0.03190
C1104       C  0.24607748  0.85085560  0.85064669    -0.10900
H1105       H  0.24640430  0.91464907  0.83549460     0.08780
H1106       H  0.25101579  0.87562119  0.94355692     0.06310
H1107       H  0.24503165  0.83270501  0.83442596     0.06160
C1108       C  0.09170994  0.87434065  0.83040144     0.03200
C1109       C  0.11464338  0.89792149  0.85009517    -0.12950
C1110       C  0.11529168  0.89912126  0.89083790     0.00700
C1111       C  0.09221194  0.87698782  0.91221274    -0.11480
C1112       C  0.06980720  0.85257126  0.89291441     0.03190
C1113       C  0.07011448  0.85105233  0.85208814    -0.10900
H1114       H  0.13193245  0.91560456  0.83357314     0.08780
H1115       H  0.09251798  0.87801741  0.94373953     0.06310
H1116       H  0.05343221  0.83184206  0.83721300     0.06160
C1117       C  0.09371996  0.87625634  0.66168068     0.03200
C1118       C  0.11441919  0.90018929  0.64007868    -0.12950
C1119       C  0.11371337  0.89961797  0.59927361     0.00700
C1120       C  0.09083366  0.87572610  0.57985426    -0.11480
C1121       C  0.06991549  0.85163375  0.60116971     0.03190
C1122       C  0.07171435  0.85189619  0.64194556    -0.10900
H1123       H  0.13080835  0.91961034  0.65491050     0.08780
H1124       H  0.09001257  0.87531640  0.54831617     0.06310
H1125       H  0.05560973  0.83335856  0.65852938     0.06160
C1126       C  0.09174892  0.72085086  0.66250399     0.03200
C1127       C  0.11568817  0.72233121  0.64268193    -0.12950
C1128       C  0.11556963  0.72021852  0.60196423     0.00700
C1129       C  0.09134184  0.71694036  0.58078802    -0.11480
C1130       C  0.06781779  0.71671708  0.60028242     0.03190
C1131       C  0.06782442  0.71792392  0.64109721    -0.10900
H1132       H  0.13422663  0.72462163  0.65918357     0.08780
H1133       H  0.09142564  0.71595617  0.54927730     0.06310
H1134       H  0.04886955  0.71598968  0.65619012     0.06160
C1135       C  0.09334605  0.72027676  0.83106665     0.03200
C1136       C  0.06957562  0.71935852  0.85060894    -0.12950
C1137       C  0.06799371  0.71813128  0.89134809     0.00700
C1138       C  0.08998124  0.71686643  0.91278225    -0.11480
C1139       C  0.11458784  0.71916282  0.89362340     0.03190
C1140       C  0.11642944  0.72155990  0.85286985    -0.10900
H1141       H  0.05207264  0.71927751  0.83396048     0.08780
H1142       H  0.08871564  0.71572483  0.94428103     0.06310
H1143       H  0.13574162  0.72418503  0.83808439     0.06160
C1144       C  0.36149133  0.60548610  0.83007957     0.03200
C1145       C  0.38389690  0.62903662  0.85025465    -0.12950
C1146       C  0.38530147  0.62869514  0.89096483     0.00700
C1147       C  0.36400279  0.60446006  0.91167549    -0.11480
C1148       C  0.34048365  0.58142362  0.89180232     0.03190
C1149       C  0.33932465  0.58210661  0.85093066    -0.10900
H1150       H  0.40052414  0.64745837  0.83402208     0.08780
H1151       H  0.36495091  0.60423367  0.94318438     0.06310
H1152       H  0.32155726  0.56420829  0.83525959     0.06160
C1153       C  0.36073547  0.60692567  0.66204506     0.03200
C1154       C  0.38399479  0.62905693  0.64099698    -0.12950
C1155       C  0.38492064  0.62744483  0.60020966     0.00700
C1156       C  0.36240818  0.60330133  0.58054745    -0.11480
C1157       C  0.33856070  0.58162473  0.60142163     0.03190
C1158       C  0.33804401  0.58343307  0.64211169    -0.10900
H1159       H  0.40150970  0.64732282  0.65649025     0.08780
H1160       H  0.36274635  0.60205538  0.54906797     0.06310
H1161       H  0.32021457  0.56621095  0.65848953     0.06160
C1162       C  0.36111664  0.75731089  0.66278668     0.03200
C1163       C  0.38479298  0.75849547  0.64280619    -0.12950
C1164       C  0.38651480  0.76076959  0.60212414     0.00700
C1165       C  0.36470458  0.76280901  0.58128710    -0.11480
C1166       C  0.34047448  0.76101267  0.60098514     0.03190
C1167       C  0.33885174  0.75829945  0.64174699    -0.10900
H1168       H  0.40223989  0.75821610  0.65912349     0.08780
H1169       H  0.36590909  0.76440021  0.54981654     0.06310
H1170       H  0.32047011  0.75733498  0.65724782     0.06160
C1171       C  0.36219773  0.75939711  0.83097055     0.03200
C1172       C  0.38568071  0.76067098  0.85175312    -0.12950
C1173       C  0.38643155  0.76247635  0.89262759     0.00700
C1174       C  0.36341331  0.76297026  0.91260973    -0.11480
C1175       C  0.33906226  0.75993560  0.89198668     0.03190
C1176       C  0.33858374  0.75806672  0.85127354    -0.10900
H1177       H  0.40360611  0.76084882  0.83602737     0.08780
H1178       H  0.36371403  0.76415766  0.94412547     0.06310
H1179       H  0.31997690  0.75599688  0.83514332     0.06160
C1180       C  0.20965713  0.60680705  0.83037946     0.03200
C1181       C  0.20985722  0.58373968  0.84999446    -0.12950
C1182       C  0.20787993  0.58197739  0.89069025     0.00700
C1183       C  0.20516690  0.60330704  0.91185348    -0.11480
C1184       C  0.20607997  0.62717912  0.89247101     0.03190
C1185       C  0.20833502  0.62879776  0.85164776    -0.10900
H1186       H  0.21122502  0.56697297  0.83336709     0.08780
H1187       H  0.20379076  0.60206985  0.94334135     0.06310
H1188       H  0.20854431  0.64684402  0.83631851     0.06160
C1189       C  0.20868333  0.60523539  0.66257126     0.03200
C1190       C  0.20770159  0.58212376  0.64120851    -0.12950
C1191       C  0.20586804  0.58174945  0.60037438     0.00700
C1192       C  0.20484518  0.60467216  0.58104419    -0.11480
C1193       C  0.20726995  0.62854896  0.60228864     0.03190
C1194       C  0.20917706  0.62867417  0.64300611    -0.10900
H1195       H  0.20799085  0.56430329  0.65646955     0.08780
H1196       H  0.20365213  0.60466213  0.54954443     0.06310
H1197       H  0.21039297  0.64671827  0.65968860     0.06160
C1198       C  0.24619190  0.82613554  0.91181031     0.42520
N1199       N  0.25582504  0.80028270  0.95043599     0.01410
C1200       C  0.19077411  0.64933827  0.95110559    -0.06460
H1201       H  0.11822538  0.69097264  0.97014115     0.06910
C1202       C  0.17140682  0.73780603  0.59519135    -0.06810
Co1203     Co  0.22498085  0.73750157  0.92602957     0.74180
N1204       N  0.16424111  0.70910166  0.95754354    -0.25990
Co1205     Co  0.18103449  0.69380124  0.00076079     0.74070
C1206       C  0.14110716  0.72201580  0.58199176     0.42630
N1207       N  0.24231172  0.78672615  0.56558159     0.01030
N1208       N  0.16715316  0.71212398  0.54388493     0.01140
N1209       N  0.21853903  0.67893227  0.90221426    -0.46840
H1210       H  0.21604991  0.78620731  0.87408368     0.06890
N1211       N  0.18103047  0.72556982  0.92889458     0.01420
N1212       N  0.19916091  0.67985732  0.54392598     0.01160
C1213       C  0.20870304  0.65387355  0.58240632     0.42770
N1214       N  0.25883489  0.80335308  0.53684898    -0.25450
C1215       C  0.28334227  0.74221369  0.89933126    -0.06370
N1216       N  0.26168280  0.82744692  0.94382039    -0.46550
N1217       N  0.19332817  0.65269099  0.55035253    -0.46780
C1218       C  0.31365463  0.75798419  0.91242543     0.42540
N1219       N  0.21255004  0.69348657  0.92860149     0.01410
N1220       N  0.29072714  0.77114601  0.53709668    -0.25470
N1221       N  0.23746604  0.78148103  0.92469715    -0.25960
N1222       N  0.27396240  0.75474365  0.56581860     0.01050
H1223       H  0.33680174  0.78955100  0.52469079     0.06940
H1224       H  0.23874399  0.69367645  0.62043641     0.06970
N1225       N  0.19605367  0.67671988  0.95725201    -0.26010
N1226       N  0.18588030  0.73048402  0.56970525    -0.25620
N1227       N  0.28773925  0.76790860  0.95065484     0.01410
C1228       C  0.13868866  0.71953069  0.91573074     0.42810
C1229       C  0.26406456  0.83074071  0.54248156    -0.06880
N1230       N  0.21743386  0.69859933  0.56981918    -0.25620
H1231       H  0.18090328  0.75210346  0.62004842     0.06960
N1232       N  0.16654832  0.73199113  0.90298443    -0.46850
H1233       H  0.27752677  0.84939318  0.52424696     0.06940
C1234       C  0.31646168  0.76126305  0.57934529     0.42640
C1235       C  0.23029793  0.79581508  0.89894253    -0.06370
Co1236     Co  0.27390716  0.78629670  0.99366137     0.73820
N1237       N  0.23625496  0.80145687  0.59160314    -0.46560
C1238       C  0.20568901  0.65098530  0.91448357     0.42910
N1239       N  0.31488993  0.77359695  0.94427467    -0.46550
Co1240     Co  0.22991596  0.74266168  0.56851753     0.73890
C1241       C  0.22453798  0.68415944  0.59552101    -0.06880
C1242       C  0.13698091  0.70428540  0.95194211    -0.06440
N1243       N  0.26895840  0.74957805  0.92485923    -0.25970
N1244       N  0.13998932  0.70643423  0.55015784    -0.46730
H1245       H  0.17729461  0.63054667  0.96912573     0.06920
C1246       C  0.31806131  0.77621579  0.54289395    -0.06860
Cl1247     Cl  0.22746548  0.74005117  0.99725464    -0.49860
C1248       C  0.24908901  0.82930961  0.57885990     0.42670
H1249       H  0.27378980  0.72795168  0.87445647     0.06880
N1250       N  0.28854279  0.74860702  0.59195355    -0.46570
C1251       C  0.04625299  0.82604749  0.58119620     0.42520
N1252       N  0.51023034  0.80018670  0.54316930     0.01410
C1253       C  0.42231963  0.64955446  0.54193689    -0.06460
H1254       H  0.03539875  0.68824048  0.52378950     0.06910
C1255       C  0.02997507  0.73588763  0.89795588    -0.06810
Co1256     Co  0.47749527  0.73750173  0.56769433     0.74180
N1257       N  0.50865564  0.70780453  0.53604495    -0.25990
Co1258     Co  0.47664605  0.69319500  0.99276487     0.74070
C1259       C  0.04398162  0.71959248  0.91097636     0.42510
N1260       N  0.50977337  0.78623344  0.92811008     0.01030
N1261       N  0.50871768  0.71082691  0.94959605     0.01140
N1262       N  0.42453537  0.67923093  0.59114059    -0.46840
H1263       H  0.03622090  0.78623836  0.61930718     0.06890
N1264       N  0.50869363  0.72446645  0.56478697     0.01420
N1265       N  0.44456160  0.67975401  0.94971775     0.01160
C1266       C  0.40881434  0.65404527  0.91135539     0.42770
N1267       N  0.51018282  0.80308700  0.95684029    -0.25450
C1268       C  0.42481626  0.74353191  0.59484785    -0.06370
N1269       N  0.03182989  0.82724258  0.54941748    -0.46550
N1270       N  0.42301254  0.65270582  0.94327668    -0.46780
C1271       C  0.41052711  0.75957678  0.58200583     0.42540
N1272       N  0.44521080  0.69363899  0.56492484     0.01410
N1273       N  0.44608124  0.77198450  0.95663042    -0.25470
N1274       N  0.50969988  0.78140563  0.56896846    -0.25960
N1275       N  0.44619587  0.75544565  0.92781905     0.01050
H1276       H  0.41898298  0.79112318  0.96897089     0.06940
H1277       H  0.41905053  0.69394016  0.87332382     0.06970
N1278       N  0.44466880  0.67676914  0.53613539    -0.26010
N1279       N  0.50856799  0.72925215  0.92375728    -0.25620
N1280       N  0.44595576  0.76888490  0.54334137     0.01410
C1281       C  0.04378628  0.71668822  0.57855221     0.42810
C1282       C  0.03268343  0.83025181  0.95128343    -0.06880
N1283       N  0.44524740  0.69859519  0.92389310    -0.25620
H1284       H  0.03484832  0.75006748  0.87301713     0.06960
N1285       N  0.02914414  0.73003274  0.59106872    -0.46850
H1286       H  0.03816742  0.84903554  0.96951526     0.06940
C1287       C  0.41078869  0.76280993  0.91409432     0.42640
C1288       C  0.03153320  0.79577087  0.59443635    -0.06370
Co1289     Co  0.47807901  0.78664816  0.00009452     0.73820
N1290       N  0.03066505  0.80061431  0.90215531    -0.46560
C1291       C  0.40911945  0.65133590  0.57848539     0.42910
N1292       N  0.42472047  0.77492468  0.54994715    -0.46550
Co1293     Co  0.47745368  0.74241927  0.92513168     0.73890
C1294       C  0.42356509  0.68433521  0.89826951    -0.06880
C1295       C  0.03042084  0.70198541  0.54194304    -0.06440
N1296       N  0.44629799  0.75050707  0.56909842    -0.25970
N1297       N  0.02973723  0.70448175  0.94310498    -0.46730
H1298       H  0.41681771  0.63075611  0.52372682     0.06920
C1299       C  0.42414846  0.77756701  0.95073562    -0.06860
Cl1300     Cl  0.47740935  0.73994534  0.99642066    -0.49860
C1301       C  0.04616267  0.82844744  0.91501029     0.42670
H1302       H  0.42004063  0.72923787  0.61963189     0.06880
N1303       N  0.42566127  0.74970622  0.90154811    -0.46570
C1304       C  0.24583863  0.92242613  0.58169662     0.42520
N1305       N  0.25530162  0.95773551  0.54274369     0.01410
C1306       C  0.19118103  0.54472143  0.54154915    -0.06460
H1307       H  0.11780195  0.93181027  0.52277945     0.06910
C1308       C  0.17106761  0.93707619  0.89737210    -0.06810
Co1309     Co  0.22473883  0.99013106  0.56698451     0.74180
N1310       N  0.16399870  0.95863869  0.53521804    -0.25990
Co1311     Co  0.18124907  0.99059574  0.99203655     0.74070
C1312       C  0.14078321  0.92300741  0.91051009     0.42630
N1313       N  0.24199303  0.95797528  0.92723514     0.01030
N1314       N  0.16713117  0.95847860  0.94891160     0.01140
N1315       N  0.21863425  0.54258541  0.59074149    -0.46840
H1316       H  0.21573301  0.93242610  0.61932721     0.06890
N1317       N  0.18059649  0.95867907  0.56399854     0.01420
N1318       N  0.19968551  0.52258694  0.94900983     0.01160
C1319       C  0.20942752  0.55817015  0.91063470     0.42770
N1320       N  0.25844016  0.95770263  0.95603029    -0.25450
C1321       C  0.28312164  0.54314357  0.59412570    -0.06370
N1322       N  0.26121609  0.93647133  0.54957318    -0.46550
N1323       N  0.19401433  0.54404472  0.94262897    -0.46780
C1324       C  0.31345145  0.55757595  0.58128754     0.42540
N1325       N  0.21274258  0.52211552  0.56428362     0.01410
N1326       N  0.29076033  0.52176425  0.95593065    -0.25470
N1327       N  0.23693868  0.95829166  0.56843963    -0.25960
N1328       N  0.27404455  0.52146533  0.92712046     0.01050
H1329       H  0.33690109  0.54919189  0.96824150     0.06940
H1330       H  0.23928078  0.54808380  0.87254355     0.06970
N1331       N  0.19641892  0.52258562  0.53549243    -0.26010
N1332       N  0.18575586  0.95861418  0.92307190    -0.25620
N1333       N  0.28763111  0.52198511  0.54268129     0.01410
C1334       C  0.13778347  0.92351335  0.57755889     0.42810
C1335       C  0.26363794  0.93552055  0.95022828    -0.06880
N1336       N  0.21787941  0.52192944  0.92312905    -0.25620
H1337       H  0.18039993  0.93216836  0.87240938     0.06960
N1338       N  0.16571296  0.93823436  0.59022509    -0.46850
H1339       H  0.27707209  0.93022328  0.96844229     0.06940
C1340       C  0.31660447  0.55708110  0.91338377     0.42640
C1341       C  0.22987566  0.93690363  0.59438731    -0.06370
Co1342     Co  0.27366595  0.98980439  0.99944638     0.73820
N1343       N  0.23599740  0.93730567  0.90101783    -0.46560
C1344       C  0.20590813  0.55781255  0.57828523     0.42910
N1345       N  0.31478704  0.54335410  0.54928243    -0.46550
Co1346     Co  0.22993075  0.98996828  0.92438488     0.73890
C1347       C  0.22512210  0.54352030  0.89748713    -0.06880
C1348       C  0.13647357  0.93682595  0.54097493    -0.06440
N1349       N  0.26880171  0.52156819  0.56840745    -0.25970
N1350       N  0.13984766  0.93737021  0.94253524    -0.46730
H1351       H  0.17774377  0.55009034  0.52345752     0.06920
C1352       C  0.31815425  0.54384482  0.95002155    -0.06860
Cl1353     Cl  0.22741117  0.99010233  0.99570497    -0.49860
C1354       C  0.24876816  0.92215361  0.91367073     0.42670
H1355       H  0.27348855  0.54788503  0.61889560     0.06880
N1356       N  0.28867330  0.54199414  0.90085804    -0.46570
C1357       C  0.18386640  0.58845751  0.76764631    -0.20240
C1358       C  0.20989323  0.60716103  0.78742698    -0.06810
C1359       C  0.23570504  0.62488211  0.76616072     0.14060
C1360       C  0.23482805  0.62367414  0.72530977    -0.20290
C1361       C  0.20879019  0.60494337  0.70553462    -0.06810
C1362       C  0.18297433  0.58721891  0.72683973     0.14050
C1363       C  0.15442766  0.56747903  0.70652362    -0.23640
H1364       H  0.16417673  0.57485143  0.78427649     0.15340
H1365       H  0.25449463  0.63728588  0.70869252     0.15370
C1366       C  0.26417106  0.64464716  0.78657974    -0.23590
H1367       H  0.13627951  0.55560908  0.72758958     0.05580
H1368       H  0.15648398  0.55100274  0.68876339     0.08810
H1369       H  0.14854968  0.58065401  0.68726882     0.08810
H1370       H  0.27012963  0.63145372  0.80567554     0.08790
H1371       H  0.26192480  0.66093080  0.80454866     0.08790
H1372       H  0.28232386  0.65670409  0.76557993     0.05560
C1373       C  0.36257191  0.78110199  0.72552070    -0.20240
C1374       C  0.36065186  0.75688183  0.70586816    -0.06810
C1375       C  0.35918045  0.73337589  0.72747446     0.14060
C1376       C  0.36003137  0.73490523  0.76832194    -0.20290
C1377       C  0.36202459  0.75917656  0.78791641    -0.06810
C1378       C  0.36335763  0.78260214  0.76630671     0.14050
C1379       C  0.36650232  0.80957755  0.78607556    -0.23640
H1380       H  0.36390290  0.79912883  0.70876220     0.15340
H1381       H  0.35876373  0.71694272  0.78512683     0.15370
C1382       C  0.35573637  0.70628465  0.70770536    -0.23590
H1383       H  0.36866509  0.82628853  0.76464282     0.05580
H1384       H  0.38634333  0.81949648  0.80474683     0.08810
H1385       H  0.34698619  0.80390137  0.80422661     0.08810
H1386       H  0.37517511  0.71170176  0.68953418     0.08790
H1387       H  0.33588123  0.69653511  0.68906622     0.08790
H1388       H  0.35336961  0.68950117  0.72915168     0.05560
C1389       C  0.34018136  0.60939990  0.76756063    -0.20240
C1390       C  0.36139174  0.60558214  0.78705959    -0.06810
C1391       C  0.38259801  0.60264226  0.76541554     0.14060
C1392       C  0.38208270  0.60363814  0.72463550    -0.20290
C1393       C  0.36083389  0.60736871  0.70508735    -0.06810
C1394       C  0.33971136  0.61046486  0.72672775     0.14050
C1395       C  0.31724413  0.61573031  0.70692507    -0.23640
H1396       H  0.32418689  0.61191669  0.78441530     0.15340
H1397       H  0.39808708  0.60108228  0.70780935     0.15370
C1398       C  0.40529589  0.59771818  0.78521404    -0.23590
H1399       H  0.30330857  0.61897677  0.72833780     0.05580
H1400       H  0.30266341  0.59673658  0.68838863     0.08810
H1401       H  0.32841841  0.63565279  0.68858448     0.08810
H1402       H  0.39433567  0.57777080  0.80353879     0.08790
H1403       H  0.41967675  0.61678806  0.80376725     0.08790
H1404       H  0.41940474  0.59474045  0.76380128     0.05560
C1405       C  0.09009949  0.74174836  0.76832170    -0.20240
C1406       C  0.09397735  0.72055754  0.78786275    -0.06810
C1407       C  0.09647404  0.69914126  0.76595083     0.14060
C1408       C  0.09537570  0.69979652  0.72518755    -0.20290
C1409       C  0.09155182  0.72100720  0.70567205    -0.06810
C1410       C  0.08884521  0.74229371  0.72753450     0.14050
C1411       C  0.08570735  0.76625623  0.70824578    -0.23640
H1412       H  0.08809402  0.75805639  0.78520774     0.15340
H1413       H  0.09730210  0.68343825  0.70826540     0.15370
C1414       C  0.09904656  0.67480309  0.78511672    -0.23590
H1415       H  0.08622925  0.78221276  0.72984000     0.05580
H1416       H  0.06451040  0.75699404  0.69267223     0.08810
H1417       H  0.10393460  0.77834731  0.68742801     0.08810
H1418       H  0.08074038  0.66291779  0.80590443     0.08790
H1419       H  0.12020824  0.68365304  0.80065090     0.08790
H1420       H  0.09818474  0.65873013  0.76344472     0.05560
C1421       C  0.11671823  0.87907384  0.76747637    -0.20240
C1422       C  0.09128622  0.87402532  0.78716228    -0.06810
C1423       C  0.06707981  0.87089548  0.76538232     0.14060
C1424       C  0.06870738  0.87188829  0.72456270    -0.20290
C1425       C  0.09410641  0.87675593  0.70490592    -0.06810
C1426       C  0.11862757  0.88088817  0.72674960     0.14050
C1427       C  0.14663666  0.88640054  0.70764433    -0.23640
H1428       H  0.13531027  0.88174105  0.78421723     0.15340
H1429       H  0.05012810  0.86920253  0.70777089     0.15370
C1430       C  0.04002975  0.86793119  0.78471840    -0.23590
H1431       H  0.16267983  0.88761517  0.72951226     0.05580
H1432       H  0.15730788  0.90768132  0.69234728     0.08810
H1433       H  0.14205494  0.86853028  0.68676888     0.08810
H1434       H  0.04621675  0.88622321  0.80553700     0.08790
H1435       H  0.02802301  0.84679028  0.80023846     0.08790
H1436       H  0.02465495  0.86854633  0.76315064     0.05560
C1437       C  0.27121688  0.87993681  0.72548366    -0.20240
C1438       C  0.24544462  0.87320284  0.70547079    -0.06810
C1439       C  0.21968723  0.86571298  0.72654023     0.14060
C1440       C  0.22061745  0.86669706  0.76740246    -0.20290
C1441       C  0.24652352  0.87391596  0.78743884    -0.06810
C1442       C  0.27199335  0.88010062  0.76632748     0.14050
C1443       C  0.30003589  0.88718706  0.78685124    -0.23640
H1444       H  0.29078601  0.88516879  0.70903236     0.15340
H1445       H  0.20099023  0.86128717  0.78380872     0.15370
C1446       C  0.19110309  0.85560646  0.70579981    -0.23590
H1447       H  0.31797247  0.89210639  0.76590687     0.05580
H1448       H  0.29668731  0.86828798  0.80481043     0.08810
H1449       H  0.30704395  0.90657158  0.80591481     0.08810
H1450       H  0.18600373  0.83634516  0.68734200     0.08790
H1451       H  0.19263277  0.87342568  0.68705238     0.08790
H1452       H  0.17276647  0.84895241  0.72664645     0.05560
C1453       C  0.74596772  0.37403034  0.16249466     0.03200
C1454       C  0.74547418  0.39697409  0.14274783    -0.12950
C1455       C  0.74739806  0.39866013  0.10196589     0.00700
C1456       C  0.74993929  0.37716576  0.08095430    -0.11480
C1457       C  0.74910040  0.35339021  0.10053346     0.03190
C1458       C  0.74733548  0.35208696  0.14131469    -0.10900
H1459       H  0.74408782  0.41375917  0.15929859     0.08780
H1460       H  0.75109479  0.37818171  0.04944701     0.06310
H1461       H  0.74716616  0.33407791  0.15670141     0.06160
C1462       C  0.74633648  0.37394293  0.33044079     0.03200
C1463       C  0.74678719  0.39705039  0.35122208    -0.12950
C1464       C  0.74865979  0.39791513  0.39209700     0.00700
C1465       C  0.74988149  0.37530140  0.41204105    -0.11480
C1466       C  0.74774998  0.35132908  0.39138763     0.03190
C1467       C  0.74607748  0.35085560  0.35064669    -0.10900
H1468       H  0.74640431  0.41464908  0.33549460     0.08780
H1469       H  0.75101579  0.37562120  0.44355692     0.06310
H1470       H  0.74503166  0.33270501  0.33442597     0.06160
C1471       C  0.59170995  0.37434065  0.33040144     0.03200
C1472       C  0.61464338  0.39792149  0.35009517    -0.12950
C1473       C  0.61529169  0.39912126  0.39083790     0.00700
C1474       C  0.59221194  0.37698782  0.41221274    -0.11480
C1475       C  0.56980721  0.35257127  0.39291441     0.03190
C1476       C  0.57011449  0.35105233  0.35208814    -0.10900
H1477       H  0.63193245  0.41560455  0.33357313     0.08780
H1478       H  0.59251798  0.37801741  0.44373953     0.06310
H1479       H  0.55343222  0.33184206  0.33721301     0.06160
C1480       C  0.59371996  0.37625633  0.16168068     0.03200
C1481       C  0.61441919  0.40018927  0.14007869    -0.12950
C1482       C  0.61371337  0.39961796  0.09927361     0.00700
C1483       C  0.59083366  0.37572609  0.07985426    -0.11480
C1484       C  0.56991550  0.35163374  0.10116971     0.03190
C1485       C  0.57171435  0.35189618  0.14194556    -0.10900
H1486       H  0.63080836  0.41961032  0.15491050     0.08780
H1487       H  0.59001257  0.37531639  0.04831617     0.06310
H1488       H  0.55560973  0.33335855  0.15852938     0.06160
C1489       C  0.59174892  0.22085086  0.16250399     0.03200
C1490       C  0.61568817  0.22233120  0.14268193    -0.12950
C1491       C  0.61556964  0.22021852  0.10196423     0.00700
C1492       C  0.59134184  0.21694036  0.08078802    -0.11480
C1493       C  0.56781779  0.21671707  0.10028242     0.03190
C1494       C  0.56782442  0.21792392  0.14109721    -0.10900
H1495       H  0.63422663  0.22462163  0.15918357     0.08780
H1496       H  0.59142564  0.21595617  0.04927730     0.06310
H1497       H  0.54886955  0.21598967  0.15619012     0.06160
C1498       C  0.59334606  0.22027676  0.33106665     0.03200
C1499       C  0.56957562  0.21935852  0.35060894    -0.12950
C1500       C  0.56799371  0.21813128  0.39134809     0.00700
C1501       C  0.58998125  0.21686643  0.41278225    -0.11480
C1502       C  0.61458784  0.21916282  0.39362340     0.03190
C1503       C  0.61642944  0.22155990  0.35286985    -0.10900
H1504       H  0.55207264  0.21927751  0.33396048     0.08780
H1505       H  0.58871565  0.21572483  0.44428103     0.06310
H1506       H  0.63574162  0.22418504  0.33808439     0.06160
C1507       C  0.86149133  0.10548610  0.33007957     0.03200
C1508       C  0.88389690  0.12903662  0.35025465    -0.12950
C1509       C  0.88530148  0.12869514  0.39096483     0.00700
C1510       C  0.86400280  0.10446006  0.41167549    -0.11480
C1511       C  0.84048366  0.08142362  0.39180232     0.03190
C1512       C  0.83932466  0.08210661  0.35093066    -0.10900
H1513       H  0.90052415  0.14745837  0.33402208     0.08780
H1514       H  0.86495092  0.10423367  0.44318438     0.06310
H1515       H  0.82155727  0.06420830  0.33525959     0.06160
C1516       C  0.86073547  0.10692567  0.16204505     0.03200
C1517       C  0.88399479  0.12905693  0.14099698    -0.12950
C1518       C  0.88492064  0.12744482  0.10020966     0.00700
C1519       C  0.86240818  0.10330133  0.08054745    -0.11480
C1520       C  0.83856070  0.08162473  0.10142163     0.03190
C1521       C  0.83804401  0.08343307  0.14211170    -0.10900
H1522       H  0.90150970  0.14732282  0.15649025     0.08780
H1523       H  0.86274635  0.10205537  0.04906797     0.06310
H1524       H  0.82021457  0.06621095  0.15848953     0.06160
C1525       C  0.86111664  0.25731089  0.16278668     0.03200
C1526       C  0.88479298  0.25849546  0.14280619    -0.12950
C1527       C  0.88651480  0.26076958  0.10212415     0.00700
C1528       C  0.86470458  0.26280900  0.08128710    -0.11480
C1529       C  0.84047448  0.26101267  0.10098514     0.03190
C1530       C  0.83885174  0.25829945  0.14174699    -0.10900
H1531       H  0.90223989  0.25821609  0.15912349     0.08780
H1532       H  0.86590909  0.26440020  0.04981654     0.06310
H1533       H  0.82047011  0.25733498  0.15724782     0.06160
C1534       C  0.86219773  0.25939712  0.33097056     0.03200
C1535       C  0.88568071  0.26067098  0.35175312    -0.12950
C1536       C  0.88643155  0.26247635  0.39262759     0.00700
C1537       C  0.86341331  0.26297026  0.41260973    -0.11480
C1538       C  0.83906226  0.25993560  0.39198669     0.03190
C1539       C  0.83858374  0.25806673  0.35127354    -0.10900
H1540       H  0.90360612  0.26084882  0.33602738     0.08780
H1541       H  0.86371403  0.26415766  0.44412547     0.06310
H1542       H  0.81997690  0.25599688  0.33514332     0.06160
C1543       C  0.70965714  0.10680706  0.33037946     0.03200
C1544       C  0.70985722  0.08373968  0.34999446    -0.12950
C1545       C  0.70787993  0.08197739  0.39069024     0.00700
C1546       C  0.70516691  0.10330704  0.41185348    -0.11480
C1547       C  0.70607997  0.12717913  0.39247101     0.03190
C1548       C  0.70833503  0.12879776  0.35164775    -0.10900
H1549       H  0.71122503  0.06697297  0.33336709     0.08780
H1550       H  0.70379077  0.10206985  0.44334135     0.06310
H1551       H  0.70854431  0.14684403  0.33631851     0.06160
C1552       C  0.70868333  0.10523539  0.16257126     0.03200
C1553       C  0.70770159  0.08212376  0.14120851    -0.12950
C1554       C  0.70586804  0.08174945  0.10037438     0.00700
C1555       C  0.70484518  0.10467216  0.08104419    -0.11480
C1556       C  0.70726995  0.12854896  0.10228864     0.03190
C1557       C  0.70917706  0.12867417  0.14300611    -0.10900
H1558       H  0.70799085  0.06430330  0.15646956     0.08780
H1559       H  0.70365213  0.10466213  0.04954443     0.06310
H1560       H  0.71039297  0.14671827  0.15968860     0.06160
C1561       C  0.74619191  0.32613554  0.41181031     0.42520
N1562       N  0.75582504  0.30028271  0.45043600     0.01410
C1563       C  0.69077411  0.14933827  0.45110559    -0.06460
H1564       H  0.61822538  0.19097264  0.47014114     0.06910
C1565       C  0.67140682  0.23780603  0.09519135    -0.06810
Co1566     Co  0.72498086  0.23750157  0.42602957     0.74180
N1567       N  0.66424112  0.20910166  0.45754354    -0.25990
Co1568     Co  0.68103449  0.19380125  0.50076079     0.74070
C1569       C  0.64110716  0.22201580  0.08199175     0.42630
N1570       N  0.74231172  0.28672615  0.06558159     0.01030
N1571       N  0.66715317  0.21212398  0.04388493     0.01140
N1572       N  0.71853903  0.17893227  0.40221426    -0.46840
H1573       H  0.71604992  0.28620731  0.37408369     0.06890
N1574       N  0.68103047  0.22556983  0.42889458     0.01420
N1575       N  0.69916091  0.17985732  0.04392598     0.01160
C1576       C  0.70870305  0.15387355  0.08240632     0.42770
N1577       N  0.75883489  0.30335308  0.03684898    -0.25450
C1578       C  0.78334227  0.24221370  0.39933126    -0.06370
N1579       N  0.76168280  0.32744693  0.44382039    -0.46550
N1580       N  0.69332817  0.15269099  0.05035253    -0.46780
C1581       C  0.81365464  0.25798420  0.41242543     0.42540
N1582       N  0.71255005  0.19348657  0.42860149     0.01410
N1583       N  0.79072715  0.27114601  0.03709668    -0.25470
N1584       N  0.73746605  0.28148104  0.42469715    -0.25960
N1585       N  0.77396240  0.25474365  0.06581860     0.01050
H1586       H  0.83680174  0.28955100  0.02469079     0.06940
H1587       H  0.73874399  0.19367645  0.12043641     0.06970
N1588       N  0.69605368  0.17671989  0.45725201    -0.26010
N1589       N  0.68588031  0.23048402  0.06970525    -0.25620
N1590       N  0.78773925  0.26790861  0.45065484     0.01410
C1591       C  0.63868866  0.21953070  0.41573073     0.42810
C1592       C  0.76406457  0.33074071  0.04248156    -0.06880
N1593       N  0.71743386  0.19859933  0.06981918    -0.25620
H1594       H  0.68090328  0.25210346  0.12004842     0.06960
N1595       N  0.66654832  0.23199113  0.40298443    -0.46850
H1596       H  0.77752678  0.34939318  0.02424696     0.06940
C1597       C  0.81646168  0.26126304  0.07934529     0.42640
C1598       C  0.73029793  0.29581508  0.39894253    -0.06370
Co1599     Co  0.77390717  0.28629670  0.49366137     0.73820
N1600       N  0.73625497  0.30145687  0.09160314    -0.46560
C1601       C  0.70568901  0.15098530  0.41448357     0.42910
N1602       N  0.81488994  0.27359695  0.44427467    -0.46550
Co1603     Co  0.72991596  0.24266168  0.06851753     0.73890
C1604       C  0.72453798  0.18415944  0.09552101    -0.06880
C1605       C  0.63698091  0.20428540  0.45194211    -0.06440
N1606       N  0.76895840  0.24957805  0.42485924    -0.25970
N1607       N  0.63998932  0.20643423  0.05015784    -0.46730
H1608       H  0.67729461  0.13054667  0.46912573     0.06920
C1609       C  0.81806131  0.27621579  0.04289395    -0.06860
Cl1610     Cl  0.72746548  0.24005117  0.49725464    -0.49860
C1611       C  0.74908901  0.32930962  0.07885990     0.42670
H1612       H  0.77378981  0.22795169  0.37445647     0.06880
N1613       N  0.78854279  0.24860702  0.09195355    -0.46570
C1614       C  0.54625299  0.32604748  0.08119620     0.42520
N1615       N  0.01023034  0.30018670  0.04316930     0.01410
C1616       C  0.92231963  0.14955445  0.04193688    -0.06460
H1617       H  0.53539875  0.18824047  0.02378950     0.06910
C1618       C  0.52997507  0.23588763  0.39795588    -0.06810
Co1619     Co  0.97749527  0.23750172  0.06769433     0.74180
N1620       N  0.00865564  0.20780453  0.03604495    -0.25990
Co1621     Co  0.97664606  0.19319500  0.49276487     0.74070
C1622       C  0.54398162  0.21959248  0.41097636     0.42510
N1623       N  0.00977337  0.28623344  0.42811009     0.01030
N1624       N  0.00871768  0.21082691  0.44959605     0.01140
N1625       N  0.92453537  0.17923092  0.09114059    -0.46840
H1626       H  0.53622090  0.28623835  0.11930717     0.06890
N1627       N  0.00869364  0.22446645  0.06478697     0.01420
N1628       N  0.94456160  0.17975401  0.44971775     0.01160
C1629       C  0.90881434  0.15404527  0.41135539     0.42770
N1630       N  0.01018283  0.30308700  0.45684030    -0.25450
C1631       C  0.92481626  0.24353191  0.09484785    -0.06370
N1632       N  0.53182989  0.32724258  0.04941747    -0.46550
N1633       N  0.92301254  0.15270582  0.44327668    -0.46780
C1634       C  0.91052711  0.25957677  0.08200583     0.42540
N1635       N  0.94521081  0.19363898  0.06492484     0.01410
N1636       N  0.94608124  0.27198450  0.45663042    -0.25470
N1637       N  0.00969988  0.28140563  0.06896846    -0.25960
N1638       N  0.94619588  0.25544565  0.42781906     0.01050
H1639       H  0.91898298  0.29112318  0.46897089     0.06940
H1640       H  0.91905053  0.19394016  0.37332382     0.06970
N1641       N  0.94466880  0.17676914  0.03613539    -0.26010
N1642       N  0.00856800  0.22925215  0.42375728    -0.25620
N1643       N  0.94595576  0.26888490  0.04334137     0.01410
C1644       C  0.54378628  0.21668821  0.07855221     0.42810
C1645       C  0.53268343  0.33025181  0.45128343    -0.06880
N1646       N  0.94524741  0.19859519  0.42389310    -0.25620
H1647       H  0.53484833  0.25006749  0.37301713     0.06960
N1648       N  0.52914414  0.23003274  0.09106872    -0.46850
H1649       H  0.53816743  0.34903554  0.46951526     0.06940
C1650       C  0.91078870  0.26280993  0.41409433     0.42640
C1651       C  0.53153320  0.29577086  0.09443635    -0.06370
Co1652     Co  0.97807901  0.28664816  0.50009452     0.73820
N1653       N  0.53066505  0.30061431  0.40215532    -0.46560
C1654       C  0.90911945  0.15133589  0.07848539     0.42910
N1655       N  0.92472047  0.27492468  0.04994715    -0.46550
Co1656     Co  0.97745368  0.24241927  0.42513168     0.73890
C1657       C  0.92356509  0.18433522  0.39826951    -0.06880
C1658       C  0.53042084  0.20198540  0.04194304    -0.06440
N1659       N  0.94629798  0.25050706  0.06909842    -0.25970
N1660       N  0.52973723  0.20448176  0.44310498    -0.46730
H1661       H  0.91681771  0.13075610  0.02372682     0.06920
C1662       C  0.92414846  0.27756701  0.45073562    -0.06860
Cl1663     Cl  0.97740936  0.23994534  0.49642067    -0.49860
C1664       C  0.54616267  0.32844745  0.41501029     0.42670
H1665       H  0.92004063  0.22923786  0.11963189     0.06880
N1666       N  0.92566127  0.24970623  0.40154811    -0.46570
C1667       C  0.74583863  0.42242613  0.08169662     0.42520
N1668       N  0.75530162  0.45773550  0.04274369     0.01410
C1669       C  0.69118103  0.04472143  0.04154915    -0.06460
H1670       H  0.61780194  0.43181026  0.02277946     0.06910
C1671       C  0.67106761  0.43707619  0.39737209    -0.06810
Co1672     Co  0.72473883  0.49013106  0.06698452     0.74180
N1673       N  0.66399870  0.45863869  0.03521804    -0.25990
Co1674     Co  0.68124908  0.49059575  0.49203655     0.74070
C1675       C  0.64078322  0.42300741  0.41051008     0.42630
N1676       N  0.74199304  0.45797528  0.42723513     0.01030
N1677       N  0.66713118  0.45847860  0.44891159     0.01140
N1678       N  0.71863425  0.04258541  0.09074149    -0.46840
H1679       H  0.71573301  0.43242610  0.11932722     0.06890
N1680       N  0.68059649  0.45867907  0.06399855     0.01420
N1681       N  0.69968551  0.02258695  0.44900983     0.01160
C1682       C  0.70942752  0.05817015  0.41063470     0.42770
N1683       N  0.75844016  0.45770264  0.45603028    -0.25450
C1684       C  0.78312164  0.04314356  0.09412570    -0.06370
N1685       N  0.76121609  0.43647133  0.04957318    -0.46550
N1686       N  0.69401433  0.04404472  0.44262896    -0.46780
C1687       C  0.81345145  0.05757595  0.08128754     0.42540
N1688       N  0.71274257  0.02211552  0.06428363     0.01410
N1689       N  0.79076033  0.02176426  0.45593065    -0.25470
N1690       N  0.73693868  0.45829166  0.06843963    -0.25960
N1691       N  0.77404456  0.02146533  0.42712046     0.01050
H1692       H  0.83690110  0.04919189  0.46824150     0.06940
H1693       H  0.73928079  0.04808381  0.37254355     0.06970
N1694       N  0.69641892  0.02258562  0.03549244    -0.26010
N1695       N  0.68575587  0.45861418  0.42307189    -0.25620
N1696       N  0.78763111  0.02198510  0.04268130     0.01410
C1697       C  0.63778347  0.42351335  0.07755889     0.42810
C1698       C  0.76363795  0.43552055  0.45022828    -0.06880
N1699       N  0.71787942  0.02192945  0.42312904    -0.25620
H1700       H  0.68039993  0.43216836  0.37240938     0.06960
N1701       N  0.66571296  0.43823435  0.09022510    -0.46850
H1702       H  0.77707210  0.43022329  0.46844229     0.06940
C1703       C  0.81660448  0.05708110  0.41338377     0.42640
C1704       C  0.72987566  0.43690363  0.09438731    -0.06370
Co1705     Co  0.77366596  0.48980439  0.49944638     0.73820
N1706       N  0.73599740  0.43730567  0.40101783    -0.46560
C1707       C  0.70590813  0.05781255  0.07828523     0.42910
N1708       N  0.81478704  0.04335410  0.04928243    -0.46550
Co1709     Co  0.72993075  0.48996828  0.42438488     0.73890
C1710       C  0.72512211  0.04352030  0.39748713    -0.06880
C1711       C  0.63647357  0.43682594  0.04097493    -0.06440
N1712       N  0.76880171  0.02156818  0.06840746    -0.25970
N1713       N  0.63984767  0.43737021  0.44253524    -0.46730
H1714       H  0.67774376  0.05009033  0.02345752     0.06920
C1715       C  0.81815425  0.04384482  0.45002155    -0.06860
Cl1716     Cl  0.72741117  0.49010233  0.49570497    -0.49860
C1717       C  0.74876816  0.42215361  0.41367073     0.42670
H1718       H  0.77348855  0.04788503  0.11889560     0.06880
N1719       N  0.78867331  0.04199414  0.40085804    -0.46570
C1720       C  0.68386640  0.08845752  0.26764631    -0.20240
C1721       C  0.70989324  0.10716104  0.28742698    -0.06810
C1722       C  0.73570505  0.12488210  0.26616071     0.14060
C1723       C  0.73482805  0.12367413  0.22530977    -0.20290
C1724       C  0.70879019  0.10494337  0.20553462    -0.06810
C1725       C  0.68297433  0.08721893  0.22683973     0.14050
C1726       C  0.65442766  0.06747905  0.20652362    -0.23640
H1727       H  0.66417673  0.07485145  0.28427650     0.15340
H1728       H  0.75449464  0.13728587  0.20869251     0.15370
C1729       C  0.76417106  0.14464715  0.28657973    -0.23590
H1730       H  0.63627951  0.05560910  0.22758958     0.05580
H1731       H  0.65648396  0.05100275  0.18876339     0.08810
H1732       H  0.64854969  0.08065404  0.18726882     0.08810
H1733       H  0.77012963  0.13145371  0.30567554     0.08790
H1734       H  0.76192482  0.16093079  0.30454866     0.08790
H1735       H  0.78232387  0.15670407  0.26557993     0.05560
C1736       C  0.86257192  0.28110199  0.22552070    -0.20240
C1737       C  0.86065187  0.25688183  0.20586816    -0.06810
C1738       C  0.85918045  0.23337589  0.22747446     0.14060
C1739       C  0.86003138  0.23490523  0.26832195    -0.20290
C1740       C  0.86202459  0.25917656  0.28791641    -0.06810
C1741       C  0.86335764  0.28260214  0.26630671     0.14050
C1742       C  0.86650232  0.30957755  0.28607555    -0.23640
H1743       H  0.86390291  0.29912883  0.20876220     0.15340
H1744       H  0.85876373  0.21694272  0.28512683     0.15370
C1745       C  0.85573637  0.20628465  0.20770536    -0.23590
H1746       H  0.86866510  0.32628853  0.26464282     0.05580
H1747       H  0.88634334  0.31949648  0.30474682     0.08810
H1748       H  0.84698620  0.30390137  0.30422661     0.08810
H1749       H  0.87517511  0.21170176  0.18953419     0.08790
H1750       H  0.83588123  0.19653510  0.18906622     0.08790
H1751       H  0.85336961  0.18950116  0.22915169     0.05560
C1752       C  0.84018137  0.10939990  0.26756063    -0.20240
C1753       C  0.86139175  0.10558214  0.28705959    -0.06810
C1754       C  0.88259802  0.10264226  0.26541554     0.14060
C1755       C  0.88208270  0.10363814  0.22463550    -0.20290
C1756       C  0.86083389  0.10736871  0.20508735    -0.06810
C1757       C  0.83971136  0.11046486  0.22672775     0.14050
C1758       C  0.81724414  0.11573031  0.20692508    -0.23640
H1759       H  0.82418690  0.11191670  0.28441530     0.15340
H1760       H  0.89808708  0.10108228  0.20780935     0.15370
C1761       C  0.90529589  0.09771819  0.28521404    -0.23590
H1762       H  0.80330857  0.11897678  0.22833780     0.05580
H1763       H  0.80266341  0.09673658  0.18838863     0.08810
H1764       H  0.82841842  0.13565279  0.18858448     0.08810
H1765       H  0.89433568  0.07777081  0.30353880     0.08790
H1766       H  0.91967676  0.11678807  0.30376725     0.08790
H1767       H  0.91940474  0.09474046  0.26380127     0.05560
C1768       C  0.59009949  0.24174836  0.26832170    -0.20240
C1769       C  0.59397735  0.22055754  0.28786275    -0.06810
C1770       C  0.59647404  0.19914126  0.26595083     0.14060
C1771       C  0.59537569  0.19979652  0.22518755    -0.20290
C1772       C  0.59155182  0.22100719  0.20567204    -0.06810
C1773       C  0.58884521  0.24229371  0.22753450     0.14050
C1774       C  0.58570735  0.26625623  0.20824578    -0.23640
H1775       H  0.58809403  0.25805639  0.28520774     0.15340
H1776       H  0.59730210  0.18343825  0.20826540     0.15370
C1777       C  0.59904656  0.17480309  0.28511672    -0.23590
H1778       H  0.58622925  0.28221276  0.22984000     0.05580
H1779       H  0.56451040  0.25699404  0.19267222     0.08810
H1780       H  0.60393460  0.27834730  0.18742801     0.08810
H1781       H  0.58074038  0.16291779  0.30590443     0.08790
H1782       H  0.62020824  0.18365304  0.30065090     0.08790
H1783       H  0.59818474  0.15873012  0.26344473     0.05560
C1784       C  0.61671823  0.37907382  0.26747637    -0.20240
C1785       C  0.59128623  0.37402531  0.28716228    -0.06810
C1786       C  0.56707982  0.37089548  0.26538232     0.14060
C1787       C  0.56870739  0.37188828  0.22456270    -0.20290
C1788       C  0.59410642  0.37675591  0.20490592    -0.06810
C1789       C  0.61862757  0.38088816  0.22674960     0.14050
C1790       C  0.64663666  0.38640052  0.20764433    -0.23640
H1791       H  0.63531027  0.38174103  0.28421723     0.15340
H1792       H  0.55012810  0.36920252  0.20777089     0.15370
C1793       C  0.54002976  0.36793119  0.28471840    -0.23590
H1794       H  0.66267983  0.38761514  0.22951226     0.05580
H1795       H  0.65730788  0.40768129  0.19234727     0.08810
H1796       H  0.64205493  0.36853024  0.18676888     0.08810
H1797       H  0.54621676  0.38622321  0.30553700     0.08790
H1798       H  0.52802302  0.34679028  0.30023846     0.08790
H1799       H  0.52465496  0.36854633  0.26315064     0.05560
C1800       C  0.77121689  0.37993682  0.22548366    -0.20240
C1801       C  0.74544463  0.37320284  0.20547079    -0.06810
C1802       C  0.71968724  0.36571297  0.22654023     0.14060
C1803       C  0.72061745  0.36669705  0.26740246    -0.20290
C1804       C  0.74652352  0.37391597  0.28743884    -0.06810
C1805       C  0.77199336  0.38010063  0.26632748     0.14050
C1806       C  0.80003590  0.38718708  0.28685124    -0.23640
H1807       H  0.79078602  0.38516881  0.20903236     0.15340
H1808       H  0.70099023  0.36128715  0.28380872     0.15370
C1809       C  0.69110309  0.35560644  0.20579980    -0.23590
H1810       H  0.81797249  0.39210642  0.26590687     0.05580
H1811       H  0.79668732  0.36828801  0.30481043     0.08810
H1812       H  0.80704396  0.40657160  0.30591481     0.08810
H1813       H  0.68600374  0.33634513  0.18734200     0.08790
H1814       H  0.69263277  0.37342565  0.18705237     0.08790
H1815       H  0.67276647  0.34895238  0.22664645     0.05560
C1816       C  0.74596771  0.37403034  0.66249466     0.03200
C1817       C  0.74547417  0.39697409  0.64274783    -0.12950
C1818       C  0.74739806  0.39866013  0.60196588     0.00700
C1819       C  0.74993928  0.37716576  0.58095429    -0.11480
C1820       C  0.74910040  0.35339021  0.60053346     0.03190
C1821       C  0.74733547  0.35208696  0.64131469    -0.10900
H1822       H  0.74408781  0.41375918  0.65929859     0.08780
H1823       H  0.75109479  0.37818171  0.54944700     0.06310
H1824       H  0.74716616  0.33407791  0.65670141     0.06160
C1825       C  0.74633648  0.37394293  0.83044079     0.03200
C1826       C  0.74678719  0.39705038  0.85122208    -0.12950
C1827       C  0.74865979  0.39791512  0.89209701     0.00700
C1828       C  0.74988149  0.37530140  0.91204105    -0.11480
C1829       C  0.74774998  0.35132908  0.89138763     0.03190
C1830       C  0.74607748  0.35085560  0.85064669    -0.10900
H1831       H  0.74640431  0.41464907  0.83549460     0.08780
H1832       H  0.75101579  0.37562119  0.94355692     0.06310
H1833       H  0.74503166  0.33270501  0.83442597     0.06160
C1834       C  0.59170994  0.37434066  0.83040144     0.03200
C1835       C  0.61464338  0.39792149  0.85009517    -0.12950
C1836       C  0.61529168  0.39912126  0.89083790     0.00700
C1837       C  0.59221194  0.37698782  0.91221274    -0.11480
C1838       C  0.56980720  0.35257127  0.89291441     0.03190
C1839       C  0.57011448  0.35105233  0.85208813    -0.10900
H1840       H  0.63193245  0.41560456  0.83357314     0.08780
H1841       H  0.59251798  0.37801740  0.94373953     0.06310
H1842       H  0.55343221  0.33184206  0.83721300     0.06160
C1843       C  0.59371995  0.37625634  0.66168068     0.03200
C1844       C  0.61441919  0.40018929  0.64007868    -0.12950
C1845       C  0.61371337  0.39961797  0.59927361     0.00700
C1846       C  0.59083366  0.37572610  0.57985426    -0.11480
C1847       C  0.56991549  0.35163375  0.60116971     0.03190
C1848       C  0.57171435  0.35189619  0.64194556    -0.10900
H1849       H  0.63080835  0.41961034  0.65491050     0.08780
H1850       H  0.59001257  0.37531640  0.54831617     0.06310
H1851       H  0.55560972  0.33335856  0.65852938     0.06160
C1852       C  0.59174892  0.22085086  0.66250399     0.03200
C1853       C  0.61568817  0.22233120  0.64268193    -0.12950
C1854       C  0.61556964  0.22021852  0.60196423     0.00700
C1855       C  0.59134185  0.21694036  0.58078802    -0.11480
C1856       C  0.56781779  0.21671707  0.60028242     0.03190
C1857       C  0.56782442  0.21792391  0.64109721    -0.10900
H1858       H  0.63422663  0.22462163  0.65918357     0.08780
H1859       H  0.59142564  0.21595617  0.54927730     0.06310
H1860       H  0.54886955  0.21598967  0.65619012     0.06160
C1861       C  0.59334606  0.22027675  0.83106665     0.03200
C1862       C  0.56957561  0.21935851  0.85060894    -0.12950
C1863       C  0.56799371  0.21813128  0.89134809     0.00700
C1864       C  0.58998124  0.21686643  0.91278225    -0.11480
C1865       C  0.61458784  0.21916282  0.89362340     0.03190
C1866       C  0.61642944  0.22155989  0.85286985    -0.10900
H1867       H  0.55207264  0.21927750  0.83396049     0.08780
H1868       H  0.58871564  0.21572483  0.94428103     0.06310
H1869       H  0.63574162  0.22418504  0.83808439     0.06160
C1870       C  0.86149133  0.10548610  0.83007957     0.03200
C1871       C  0.88389690  0.12903662  0.85025465    -0.12950
C1872       C  0.88530148  0.12869514  0.89096483     0.00700
C1873       C  0.86400279  0.10446005  0.91167549    -0.11480
C1874       C  0.84048365  0.08142362  0.89180232     0.03190
C1875       C  0.83932465  0.08210661  0.85093066    -0.10900
H1876       H  0.90052415  0.14745836  0.83402208     0.08780
H1877       H  0.86495091  0.10423367  0.94318438     0.06310
H1878       H  0.82155726  0.06420829  0.83525959     0.06160
C1879       C  0.86073547  0.10692567  0.66204506     0.03200
C1880       C  0.88399479  0.12905693  0.64099698    -0.12950
C1881       C  0.88492064  0.12744482  0.60020966     0.00700
C1882       C  0.86240818  0.10330133  0.58054745    -0.11480
C1883       C  0.83856070  0.08162473  0.60142163     0.03190
C1884       C  0.83804402  0.08343307  0.64211169    -0.10900
H1885       H  0.90150971  0.14732282  0.65649026     0.08780
H1886       H  0.86274635  0.10205538  0.54906797     0.06310
H1887       H  0.82021457  0.06621095  0.65848953     0.06160
C1888       C  0.86111664  0.25731089  0.66278668     0.03200
C1889       C  0.88479298  0.25849546  0.64280619    -0.12950
C1890       C  0.88651480  0.26076959  0.60212415     0.00700
C1891       C  0.86470458  0.26280900  0.58128710    -0.11480
C1892       C  0.84047448  0.26101267  0.60098514     0.03190
C1893       C  0.83885174  0.25829945  0.64174699    -0.10900
H1894       H  0.90223988  0.25821609  0.65912349     0.08780
H1895       H  0.86590909  0.26440020  0.54981654     0.06310
H1896       H  0.82047011  0.25733498  0.65724782     0.06160
C1897       C  0.86219773  0.25939712  0.83097055     0.03200
C1898       C  0.88568071  0.26067098  0.85175312    -0.12950
C1899       C  0.88643155  0.26247635  0.89262759     0.00700
C1900       C  0.86341331  0.26297026  0.91260973    -0.11480
C1901       C  0.83906226  0.25993560  0.89198668     0.03190
C1902       C  0.83858374  0.25806673  0.85127354    -0.10900
H1903       H  0.90360612  0.26084882  0.83602738     0.08780
H1904       H  0.86371403  0.26415766  0.94412547     0.06310
H1905       H  0.81997690  0.25599688  0.83514332     0.06160
C1906       C  0.70965713  0.10680705  0.83037946     0.03200
C1907       C  0.70985722  0.08373968  0.84999446    -0.12950
C1908       C  0.70787993  0.08197739  0.89069025     0.00700
C1909       C  0.70516691  0.10330704  0.91185349    -0.11480
C1910       C  0.70607997  0.12717912  0.89247101     0.03190
C1911       C  0.70833502  0.12879776  0.85164776    -0.10900
H1912       H  0.71122502  0.06697297  0.83336709     0.08780
H1913       H  0.70379076  0.10206985  0.94334135     0.06310
H1914       H  0.70854431  0.14684402  0.83631851     0.06160
C1915       C  0.70868333  0.10523539  0.66257126     0.03200
C1916       C  0.70770159  0.08212376  0.64120851    -0.12950
C1917       C  0.70586804  0.08174945  0.60037438     0.00700
C1918       C  0.70484518  0.10467216  0.58104419    -0.11480
C1919       C  0.70726994  0.12854896  0.60228864     0.03190
C1920       C  0.70917706  0.12867417  0.64300611    -0.10900
H1921       H  0.70799085  0.06430329  0.65646955     0.08780
H1922       H  0.70365213  0.10466213  0.54954443     0.06310
H1923       H  0.71039297  0.14671827  0.65968860     0.06160
C1924       C  0.74619191  0.32613554  0.91181031     0.42520
N1925       N  0.75582504  0.30028270  0.95043600     0.01410
C1926       C  0.69077411  0.14933827  0.95110559    -0.06460
H1927       H  0.61822538  0.19097264  0.97014115     0.06910
C1928       C  0.67140682  0.23780603  0.59519135    -0.06810
Co1929     Co  0.72498086  0.23750157  0.92602957     0.74180
N1930       N  0.66424112  0.20910166  0.95754354    -0.25990
Co1931     Co  0.68103449  0.19380124  0.00076079     0.74070
C1932       C  0.64110716  0.22201580  0.58199175     0.42630
N1933       N  0.74231172  0.28672615  0.56558159     0.01030
N1934       N  0.66715317  0.21212398  0.54388493     0.01140
N1935       N  0.71853903  0.17893227  0.90221427    -0.46840
H1936       H  0.71604992  0.28620731  0.87408369     0.06890
N1937       N  0.68103047  0.22556982  0.92889458     0.01420
N1938       N  0.69916091  0.17985732  0.54392598     0.01160
C1939       C  0.70870304  0.15387355  0.58240632     0.42770
N1940       N  0.75883489  0.30335308  0.53684898    -0.25450
C1941       C  0.78334227  0.24221370  0.89933126    -0.06370
N1942       N  0.76168280  0.32744693  0.94382039    -0.46550
N1943       N  0.69332817  0.15269099  0.55035253    -0.46780
C1944       C  0.81365464  0.25798420  0.91242543     0.42540
N1945       N  0.71255005  0.19348657  0.92860149     0.01410
N1946       N  0.79072714  0.27114601  0.53709668    -0.25470
N1947       N  0.73746605  0.28148103  0.92469715    -0.25960
N1948       N  0.77396240  0.25474365  0.56581860     0.01050
H1949       H  0.83680174  0.28955100  0.52469079     0.06940
H1950       H  0.73874399  0.19367645  0.62043642     0.06970
N1951       N  0.69605368  0.17671988  0.95725201    -0.26010
N1952       N  0.68588031  0.23048402  0.56970525    -0.25620
N1953       N  0.78773925  0.26790861  0.95065484     0.01410
C1954       C  0.63868866  0.21953069  0.91573074     0.42810
C1955       C  0.76406456  0.33074071  0.54248156    -0.06880
N1956       N  0.71743386  0.19859933  0.56981918    -0.25620
H1957       H  0.68090328  0.25210346  0.62004842     0.06960
N1958       N  0.66654832  0.23199113  0.90298443    -0.46850
H1959       H  0.77752678  0.34939318  0.52424696     0.06940
C1960       C  0.81646168  0.26126305  0.57934529     0.42640
C1961       C  0.73029793  0.29581508  0.89894253    -0.06370
Co1962     Co  0.77390717  0.28629670  0.99366137     0.73820
N1963       N  0.73625497  0.30145687  0.59160314    -0.46560
C1964       C  0.70568901  0.15098530  0.91448357     0.42910
N1965       N  0.81488994  0.27359695  0.94427467    -0.46550
Co1966     Co  0.72991596  0.24266168  0.56851753     0.73890
C1967       C  0.72453798  0.18415945  0.59552101    -0.06880
C1968       C  0.63698091  0.20428540  0.95194211    -0.06440
N1969       N  0.76895840  0.24957805  0.92485924    -0.25970
N1970       N  0.63998932  0.20643423  0.55015784    -0.46730
H1971       H  0.67729461  0.13054667  0.96912573     0.06920
C1972       C  0.81806131  0.27621579  0.54289395    -0.06860
Cl1973     Cl  0.72746548  0.24005117  0.99725464    -0.49860
C1974       C  0.74908901  0.32930962  0.57885990     0.42670
H1975       H  0.77378981  0.22795169  0.87445647     0.06880
N1976       N  0.78854279  0.24860703  0.59195355    -0.46570
C1977       C  0.54625299  0.32604749  0.58119620     0.42520
N1978       N  0.01023034  0.30018670  0.54316930     0.01410
C1979       C  0.92231963  0.14955446  0.54193689    -0.06460
H1980       H  0.53539875  0.18824047  0.52378950     0.06910
C1981       C  0.52997507  0.23588762  0.89795588    -0.06810
Co1982     Co  0.97749527  0.23750172  0.56769433     0.74180
N1983       N  0.00865564  0.20780453  0.53604495    -0.25990
Co1984     Co  0.97664605  0.19319500  0.99276487     0.74070
C1985       C  0.54398162  0.21959247  0.91097636     0.42510
N1986       N  0.00977337  0.28623344  0.92811009     0.01030
N1987       N  0.00871768  0.21082691  0.94959605     0.01140
N1988       N  0.92453538  0.17923092  0.59114059    -0.46840
H1989       H  0.53622091  0.28623836  0.61930718     0.06890
N1990       N  0.00869364  0.22446645  0.56478697     0.01420
N1991       N  0.94456160  0.17975401  0.94971775     0.01160
C1992       C  0.90881434  0.15404527  0.91135539     0.42770
N1993       N  0.01018283  0.30308699  0.95684029    -0.25450
C1994       C  0.92481626  0.24353191  0.59484785    -0.06370
N1995       N  0.53182989  0.32724258  0.54941748    -0.46550
N1996       N  0.92301254  0.15270582  0.94327668    -0.46780
C1997       C  0.91052711  0.25957678  0.58200583     0.42540
N1998       N  0.94521081  0.19363899  0.56492484     0.01410
N1999       N  0.94608124  0.27198450  0.95663042    -0.25470
N2000       N  0.00969988  0.28140563  0.56896846    -0.25960
N2001       N  0.94619588  0.25544564  0.92781905     0.01050
H2002       H  0.91898298  0.29112318  0.96897089     0.06940
H2003       H  0.91905053  0.19394016  0.87332382     0.06970
N2004       N  0.94466880  0.17676914  0.53613539    -0.26010
N2005       N  0.00856800  0.22925215  0.92375728    -0.25620
N2006       N  0.94595576  0.26888490  0.54334138     0.01410
C2007       C  0.54378628  0.21668822  0.57855221     0.42810
C2008       C  0.53268343  0.33025180  0.95128343    -0.06880
N2009       N  0.94524741  0.19859518  0.92389310    -0.25620
H2010       H  0.53484833  0.25006748  0.87301713     0.06960
N2011       N  0.52914414  0.23003274  0.59106872    -0.46850
H2012       H  0.53816742  0.34903554  0.96951526     0.06940
C2013       C  0.91078870  0.26280993  0.91409432     0.42640
C2014       C  0.53153320  0.29577087  0.59443635    -0.06370
Co2015     Co  0.97807901  0.28664816  0.00009452     0.73820
N2016       N  0.53066505  0.30061431  0.90215531    -0.46560
C2017       C  0.90911945  0.15133589  0.57848539     0.42910
N2018       N  0.92472047  0.27492468  0.54994715    -0.46550
Co2019     Co  0.97745368  0.24241926  0.92513168     0.73890
C2020       C  0.92356509  0.18433521  0.89826951    -0.06880
C2021       C  0.53042084  0.20198540  0.54194304    -0.06440
N2022       N  0.94629799  0.25050707  0.56909842    -0.25970
N2023       N  0.52973723  0.20448175  0.94310498    -0.46730
H2024       H  0.91681771  0.13075610  0.52372682     0.06920
C2025       C  0.92414846  0.27756701  0.95073562    -0.06860
Cl2026     Cl  0.97740935  0.23994534  0.99642067    -0.49860
C2027       C  0.54616267  0.32844744  0.91501029     0.42670
H2028       H  0.92004063  0.22923786  0.61963189     0.06880
N2029       N  0.92566127  0.24970622  0.90154811    -0.46570
C2030       C  0.74583863  0.42242613  0.58169662     0.42520
N2031       N  0.75530162  0.45773551  0.54274369     0.01410
C2032       C  0.69118103  0.04472143  0.54154915    -0.06460
H2033       H  0.61780195  0.43181027  0.52277945     0.06910
C2034       C  0.67106761  0.43707619  0.89737210    -0.06810
Co2035     Co  0.72473883  0.49013106  0.56698451     0.74180
N2036       N  0.66399870  0.45863869  0.53521804    -0.25990
Co2037     Co  0.68124907  0.49059574  0.99203656     0.74070
C2038       C  0.64078321  0.42300741  0.91051009     0.42630
N2039       N  0.74199303  0.45797528  0.92723514     0.01030
N2040       N  0.66713118  0.45847860  0.94891160     0.01140
N2041       N  0.71863425  0.04258541  0.59074149    -0.46840
H2042       H  0.71573301  0.43242610  0.61932721     0.06890
N2043       N  0.68059649  0.45867907  0.56399854     0.01420
N2044       N  0.69968551  0.02258695  0.94900983     0.01160
C2045       C  0.70942752  0.05817015  0.91063470     0.42770
N2046       N  0.75844016  0.45770263  0.95603029    -0.25450
C2047       C  0.78312164  0.04314357  0.59412570    -0.06370
N2048       N  0.76121609  0.43647133  0.54957318    -0.46550
N2049       N  0.69401433  0.04404472  0.94262897    -0.46780
C2050       C  0.81345146  0.05757595  0.58128754     0.42540
N2051       N  0.71274258  0.02211552  0.56428362     0.01410
N2052       N  0.79076033  0.02176425  0.95593065    -0.25470
N2053       N  0.73693867  0.45829166  0.56843963    -0.25960
N2054       N  0.77404456  0.02146533  0.92712046     0.01050
H2055       H  0.83690109  0.04919189  0.96824150     0.06940
H2056       H  0.73928078  0.04808381  0.87254355     0.06970
N2057       N  0.69641892  0.02258562  0.53549243    -0.26010
N2058       N  0.68575586  0.45861418  0.92307190    -0.25620
N2059       N  0.78763111  0.02198511  0.54268129     0.01410
C2060       C  0.63778347  0.42351335  0.57755889     0.42810
C2061       C  0.76363794  0.43552055  0.95022828    -0.06880
N2062       N  0.71787941  0.02192944  0.92312905    -0.25620
H2063       H  0.68039993  0.43216836  0.87240938     0.06960
N2064       N  0.66571296  0.43823436  0.59022509    -0.46850
H2065       H  0.77707209  0.43022328  0.96844229     0.06940
C2066       C  0.81660447  0.05708110  0.91338377     0.42640
C2067       C  0.72987566  0.43690363  0.59438731    -0.06370
Co2068     Co  0.77366596  0.48980439  0.99944638     0.73820
N2069       N  0.73599740  0.43730567  0.90101783    -0.46560
C2070       C  0.70590813  0.05781255  0.57828523     0.42910
N2071       N  0.81478704  0.04335410  0.54928243    -0.46550
Co2072     Co  0.72993075  0.48996828  0.92438488     0.73890
C2073       C  0.72512211  0.04352030  0.89748713    -0.06880
C2074       C  0.63647357  0.43682595  0.54097493    -0.06440
N2075       N  0.76880171  0.02156819  0.56840745    -0.25970
N2076       N  0.63984766  0.43737020  0.94253525    -0.46730
H2077       H  0.67774377  0.05009034  0.52345752     0.06920
C2078       C  0.81815425  0.04384482  0.95002155    -0.06860
Cl2079     Cl  0.72741117  0.49010233  0.99570497    -0.49860
C2080       C  0.74876816  0.42215361  0.91367073     0.42670
H2081       H  0.77348855  0.04788503  0.61889560     0.06880
N2082       N  0.78867331  0.04199414  0.90085804    -0.46570
C2083       C  0.68386640  0.08845750  0.76764631    -0.20240
C2084       C  0.70989323  0.10716103  0.78742698    -0.06810
C2085       C  0.73570504  0.12488212  0.76616071     0.14060
C2086       C  0.73482804  0.12367415  0.72530977    -0.20290
C2087       C  0.70879019  0.10494337  0.70553462    -0.06810
C2088       C  0.68297433  0.08721890  0.72683973     0.14050
C2089       C  0.65442766  0.06747901  0.70652362    -0.23640
H2090       H  0.66417674  0.07485142  0.78427650     0.15340
H2091       H  0.75449462  0.13728590  0.70869251     0.15370
C2092       C  0.76417105  0.14464718  0.78657973    -0.23590
H2093       H  0.63627951  0.05560905  0.72758958     0.05580
H2094       H  0.65648399  0.05100272  0.68876340     0.08810
H2095       H  0.64854968  0.08065399  0.68726882     0.08810
H2096       H  0.77012963  0.13145375  0.80567553     0.08790
H2097       H  0.76192479  0.16093082  0.80454866     0.08790
H2098       H  0.78232385  0.15670411  0.76557993     0.05560
C2099       C  0.86257192  0.28110199  0.72552070    -0.20240
C2100       C  0.86065187  0.25688183  0.70586816    -0.06810
C2101       C  0.85918044  0.23337589  0.72747446     0.14060
C2102       C  0.86003137  0.23490523  0.76832195    -0.20290
C2103       C  0.86202459  0.25917656  0.78791641    -0.06810
C2104       C  0.86335764  0.28260214  0.76630671     0.14050
C2105       C  0.86650233  0.30957755  0.78607556    -0.23640
H2106       H  0.86390291  0.29912883  0.70876220     0.15340
H2107       H  0.85876372  0.21694271  0.78512683     0.15370
C2108       C  0.85573637  0.20628464  0.70770536    -0.23590
H2109       H  0.86866511  0.32628853  0.76464282     0.05580
H2110       H  0.88634334  0.31949648  0.80474683     0.08810
H2111       H  0.84698621  0.30390137  0.80422661     0.08810
H2112       H  0.87517510  0.21170175  0.68953418     0.08790
H2113       H  0.83588122  0.19653510  0.68906622     0.08790
H2114       H  0.85336960  0.18950116  0.72915168     0.05560
C2115       C  0.84018137  0.10939990  0.76756063    -0.20240
C2116       C  0.86139175  0.10558214  0.78705959    -0.06810
C2117       C  0.88259801  0.10264226  0.76541554     0.14060
C2118       C  0.88208270  0.10363813  0.72463550    -0.20290
C2119       C  0.86083389  0.10736870  0.70508735    -0.06810
C2120       C  0.83971136  0.11046486  0.72672775     0.14050
C2121       C  0.81724414  0.11573031  0.70692508    -0.23640
H2122       H  0.82418690  0.11191669  0.78441530     0.15340
H2123       H  0.89808708  0.10108227  0.70780935     0.15370
C2124       C  0.90529589  0.09771817  0.78521404    -0.23590
H2125       H  0.80330858  0.11897678  0.72833780     0.05580
H2126       H  0.80266342  0.09673658  0.68838863     0.08810
H2127       H  0.82841842  0.13565279  0.68858449     0.08810
H2128       H  0.89433567  0.07777079  0.80353879     0.08790
H2129       H  0.91967676  0.11678806  0.80376725     0.08790
H2130       H  0.91940474  0.09474045  0.76380127     0.05560
C2131       C  0.59009948  0.24174835  0.76832170    -0.20240
C2132       C  0.59397735  0.22055753  0.78786275    -0.06810
C2133       C  0.59647405  0.19914126  0.76595083     0.14060
C2134       C  0.59537570  0.19979652  0.72518755    -0.20290
C2135       C  0.59155181  0.22100719  0.70567205    -0.06810
C2136       C  0.58884520  0.24229370  0.72753450     0.14050
C2137       C  0.58570733  0.26625621  0.70824579    -0.23640
H2138       H  0.58809401  0.25805638  0.78520774     0.15340
H2139       H  0.59730211  0.18343825  0.70826540     0.15370
C2140       C  0.59904657  0.17480309  0.78511672    -0.23590
H2141       H  0.58622923  0.28221274  0.72984001     0.05580
H2142       H  0.56451038  0.25699402  0.69267223     0.08810
H2143       H  0.60393457  0.27834729  0.68742801     0.08810
H2144       H  0.58074040  0.16291780  0.80590443     0.08790
H2145       H  0.62020826  0.18365305  0.80065089     0.08790
H2146       H  0.59818476  0.15873013  0.76344472     0.05560
C2147       C  0.61671823  0.37907384  0.76747637    -0.20240
C2148       C  0.59128622  0.37402533  0.78716228    -0.06810
C2149       C  0.56707981  0.37089549  0.76538232     0.14060
C2150       C  0.56870738  0.37188830  0.72456270    -0.20290
C2151       C  0.59410641  0.37675593  0.70490592    -0.06810
C2152       C  0.61862756  0.38088818  0.72674960     0.14050
C2153       C  0.64663666  0.38640055  0.70764432    -0.23640
H2154       H  0.63531027  0.38174105  0.78421723     0.15340
H2155       H  0.55012810  0.36920254  0.70777089     0.15370
C2156       C  0.54002975  0.36793120  0.78471840    -0.23590
H2157       H  0.66267983  0.38761517  0.72951225     0.05580
H2158       H  0.65730788  0.40768132  0.69234727     0.08810
H2159       H  0.64205493  0.36853028  0.68676888     0.08810
H2160       H  0.54621675  0.38622322  0.80553700     0.08790
H2161       H  0.52802301  0.34679029  0.80023846     0.08790
H2162       H  0.52465495  0.36854634  0.76315064     0.05560
C2163       C  0.77121688  0.37993681  0.72548366    -0.20240
C2164       C  0.74544463  0.37320284  0.70547079    -0.06810
C2165       C  0.71968724  0.36571299  0.72654023     0.14060
C2166       C  0.72061745  0.36669706  0.76740246    -0.20290
C2167       C  0.74652352  0.37391597  0.78743884    -0.06810
C2168       C  0.77199335  0.38010061  0.76632748     0.14050
C2169       C  0.80003589  0.38718706  0.78685124    -0.23640
H2170       H  0.79078601  0.38516879  0.70903235     0.15340
H2171       H  0.70099023  0.36128718  0.78380872     0.15370
C2172       C  0.69110309  0.35560647  0.70579981    -0.23590
H2173       H  0.81797247  0.39210638  0.76590686     0.05580
H2174       H  0.79668730  0.36828798  0.80481043     0.08810
H2175       H  0.80704396  0.40657157  0.80591481     0.08810
H2176       H  0.68600373  0.33634517  0.68734200     0.08790
H2177       H  0.69263278  0.37342569  0.68705238     0.08790
H2178       H  0.67276647  0.34895242  0.72664645     0.05560
C2179       C  0.74596771  0.87403034  0.16249466     0.03200
C2180       C  0.74547417  0.89697408  0.14274783    -0.12950
C2181       C  0.74739805  0.89866012  0.10196589     0.00700
C2182       C  0.74993928  0.87716575  0.08095430    -0.11480
C2183       C  0.74910039  0.85339020  0.10053346     0.03190
C2184       C  0.74733547  0.85208695  0.14131469    -0.10900
H2185       H  0.74408781  0.91375917  0.15929859     0.08780
H2186       H  0.75109478  0.87818171  0.04944700     0.06310
H2187       H  0.74716615  0.83407791  0.15670141     0.06160
C2188       C  0.74633647  0.87394293  0.33044079     0.03200
C2189       C  0.74678719  0.89705038  0.35122208    -0.12950
C2190       C  0.74865978  0.89791512  0.39209700     0.00700
C2191       C  0.74988149  0.87530140  0.41204105    -0.11480
C2192       C  0.74774997  0.85132908  0.39138763     0.03190
C2193       C  0.74607747  0.85085560  0.35064669    -0.10900
H2194       H  0.74640430  0.91464907  0.33549460     0.08780
H2195       H  0.75101578  0.87562119  0.44355692     0.06310
H2196       H  0.74503165  0.83270500  0.33442597     0.06160
C2197       C  0.59170994  0.87434065  0.33040144     0.03200
C2198       C  0.61464338  0.89792149  0.35009517    -0.12950
C2199       C  0.61529169  0.89912126  0.39083790     0.00700
C2200       C  0.59221194  0.87698782  0.41221274    -0.11480
C2201       C  0.56980721  0.85257126  0.39291441     0.03190
C2202       C  0.57011449  0.85105233  0.35208814    -0.10900
H2203       H  0.63193245  0.91560455  0.33357313     0.08780
H2204       H  0.59251798  0.87801741  0.44373953     0.06310
H2205       H  0.55343221  0.83184206  0.33721301     0.06160
C2206       C  0.59371995  0.87625633  0.16168068     0.03200
C2207       C  0.61441919  0.90018928  0.14007868    -0.12950
C2208       C  0.61371337  0.89961796  0.09927361     0.00700
C2209       C  0.59083366  0.87572609  0.07985426    -0.11480
C2210       C  0.56991549  0.85163374  0.10116970     0.03190
C2211       C  0.57171435  0.85189618  0.14194556    -0.10900
H2212       H  0.63080835  0.91961033  0.15491050     0.08780
H2213       H  0.59001257  0.87531639  0.04831617     0.06310
H2214       H  0.55560972  0.83335855  0.15852938     0.06160
C2215       C  0.59174892  0.72085085  0.16250399     0.03200
C2216       C  0.61568816  0.72233120  0.14268193    -0.12950
C2217       C  0.61556963  0.72021851  0.10196423     0.00700
C2218       C  0.59134184  0.71694035  0.08078802    -0.11480
C2219       C  0.56781779  0.71671707  0.10028242     0.03190
C2220       C  0.56782442  0.71792391  0.14109721    -0.10900
H2221       H  0.63422663  0.72462163  0.15918357     0.08780
H2222       H  0.59142564  0.71595616  0.04927730     0.06310
H2223       H  0.54886954  0.71598967  0.15619012     0.06160
C2224       C  0.59334605  0.72027675  0.33106665     0.03200
C2225       C  0.56957561  0.71935851  0.35060894    -0.12950
C2226       C  0.56799371  0.71813128  0.39134809     0.00700
C2227       C  0.58998124  0.71686643  0.41278225    -0.11480
C2228       C  0.61458783  0.71916282  0.39362340     0.03190
C2229       C  0.61642944  0.72155989  0.35286985    -0.10900
H2230       H  0.55207263  0.71927750  0.33396049     0.08780
H2231       H  0.58871564  0.71572483  0.44428103     0.06310
H2232       H  0.63574162  0.72418503  0.33808439     0.06160
C2233       C  0.86149134  0.60548610  0.33007957     0.03200
C2234       C  0.88389691  0.62903662  0.35025465    -0.12950
C2235       C  0.88530148  0.62869515  0.39096483     0.00700
C2236       C  0.86400280  0.60446006  0.41167549    -0.11480
C2237       C  0.84048366  0.58142362  0.39180232     0.03190
C2238       C  0.83932466  0.58210661  0.35093066    -0.10900
H2239       H  0.90052415  0.64745837  0.33402208     0.08780
H2240       H  0.86495092  0.60423367  0.44318438     0.06310
H2241       H  0.82155727  0.56420830  0.33525959     0.06160
C2242       C  0.86073547  0.60692567  0.16204506     0.03200
C2243       C  0.88399479  0.62905693  0.14099698    -0.12950
C2244       C  0.88492064  0.62744482  0.10020966     0.00700
C2245       C  0.86240818  0.60330133  0.08054745    -0.11480
C2246       C  0.83856070  0.58162473  0.10142163     0.03190
C2247       C  0.83804402  0.58343307  0.14211170    -0.10900
H2248       H  0.90150971  0.64732282  0.15649025     0.08780
H2249       H  0.86274635  0.60205538  0.04906797     0.06310
H2250       H  0.82021457  0.56621095  0.15848953     0.06160
C2251       C  0.86111663  0.75731088  0.16278668     0.03200
C2252       C  0.88479298  0.75849546  0.14280619    -0.12950
C2253       C  0.88651480  0.76076958  0.10212415     0.00700
C2254       C  0.86470458  0.76280900  0.08128710    -0.11480
C2255       C  0.84047448  0.76101267  0.10098514     0.03190
C2256       C  0.83885173  0.75829944  0.14174699    -0.10900
H2257       H  0.90223988  0.75821609  0.15912349     0.08780
H2258       H  0.86590909  0.76440020  0.04981654     0.06310
H2259       H  0.82047010  0.75733497  0.15724782     0.06160
C2260       C  0.86219773  0.75939711  0.33097056     0.03200
C2261       C  0.88568070  0.76067098  0.35175312    -0.12950
C2262       C  0.88643155  0.76247635  0.39262759     0.00700
C2263       C  0.86341331  0.76297026  0.41260973    -0.11480
C2264       C  0.83906226  0.75993560  0.39198669     0.03190
C2265       C  0.83858374  0.75806672  0.35127354    -0.10900
H2266       H  0.90360611  0.76084882  0.33602738     0.08780
H2267       H  0.86371403  0.76415766  0.44412547     0.06310
H2268       H  0.81997690  0.75599687  0.33514332     0.06160
C2269       C  0.70965713  0.60680705  0.33037946     0.03200
C2270       C  0.70985722  0.58373968  0.34999446    -0.12950
C2271       C  0.70787993  0.58197739  0.39069024     0.00700
C2272       C  0.70516691  0.60330704  0.41185348    -0.11480
C2273       C  0.70607997  0.62717912  0.39247101     0.03190
C2274       C  0.70833502  0.62879776  0.35164775    -0.10900
H2275       H  0.71122502  0.56697297  0.33336709     0.08780
H2276       H  0.70379077  0.60206985  0.44334135     0.06310
H2277       H  0.70854431  0.64684402  0.33631851     0.06160
C2278       C  0.70868332  0.60523538  0.16257126     0.03200
C2279       C  0.70770158  0.58212375  0.14120851    -0.12950
C2280       C  0.70586804  0.58174944  0.10037438     0.00700
C2281       C  0.70484518  0.60467216  0.08104419    -0.11480
C2282       C  0.70726994  0.62854896  0.10228864     0.03190
C2283       C  0.70917705  0.62867416  0.14300611    -0.10900
H2284       H  0.70799084  0.56430329  0.15646956     0.08780
H2285       H  0.70365213  0.60466213  0.04954443     0.06310
H2286       H  0.71039296  0.64671826  0.15968860     0.06160
C2287       C  0.74619190  0.82613554  0.41181031     0.42520
N2288       N  0.75582503  0.80028270  0.45043600     0.01410
C2289       C  0.69077411  0.64933827  0.45110559    -0.06460
H2290       H  0.61822538  0.69097263  0.47014115     0.06910
C2291       C  0.67140681  0.73780603  0.09519135    -0.06810
Co2292     Co  0.72498085  0.73750157  0.42602957     0.74180
N2293       N  0.66424111  0.70910166  0.45754354    -0.25990
Co2294     Co  0.68103449  0.69380124  0.50076079     0.74070
C2295       C  0.64110715  0.72201580  0.08199175     0.42630
N2296       N  0.74231171  0.78672615  0.06558159     0.01030
N2297       N  0.66715316  0.71212398  0.04388493     0.01140
N2298       N  0.71853903  0.67893227  0.40221426    -0.46840
H2299       H  0.71604991  0.78620731  0.37408369     0.06890
N2300       N  0.68103046  0.72556982  0.42889458     0.01420
N2301       N  0.69916090  0.67985732  0.04392598     0.01160
C2302       C  0.70870304  0.65387355  0.08240632     0.42770
N2303       N  0.75883488  0.80335308  0.03684898    -0.25450
C2304       C  0.78334227  0.74221370  0.39933126    -0.06370
N2305       N  0.76168279  0.82744692  0.44382039    -0.46550
N2306       N  0.69332816  0.65269099  0.05035253    -0.46780
C2307       C  0.81365463  0.75798419  0.41242543     0.42540
N2308       N  0.71255004  0.69348657  0.42860149     0.01410
N2309       N  0.79072714  0.77114600  0.03709668    -0.25470
N2310       N  0.73746604  0.78148103  0.42469715    -0.25960
N2311       N  0.77396239  0.75474364  0.06581860     0.01050
H2312       H  0.83680173  0.78955100  0.02469079     0.06940
H2313       H  0.73874399  0.69367644  0.12043641     0.06970
N2314       N  0.69605367  0.67671988  0.45725201    -0.26010
N2315       N  0.68588030  0.73048401  0.06970525    -0.25620
N2316       N  0.78773925  0.76790861  0.45065484     0.01410
C2317       C  0.63868866  0.71953069  0.41573073     0.42810
C2318       C  0.76406456  0.83074070  0.04248156    -0.06880
N2319       N  0.71743386  0.69859932  0.06981918    -0.25620
H2320       H  0.68090327  0.75210346  0.12004842     0.06960
N2321       N  0.66654832  0.73199113  0.40298443    -0.46850
H2322       H  0.77752677  0.84939317  0.02424696     0.06940
C2323       C  0.81646168  0.76126304  0.07934529     0.42640
C2324       C  0.73029793  0.79581508  0.39894253    -0.06370
Co2325     Co  0.77390716  0.78629670  0.49366137     0.73820
N2326       N  0.73625496  0.80145687  0.09160314    -0.46560
C2327       C  0.70568901  0.65098530  0.41448357     0.42910
N2328       N  0.81488993  0.77359695  0.44427467    -0.46550
Co2329     Co  0.72991596  0.74266168  0.06851753     0.73890
C2330       C  0.72453798  0.68415944  0.09552101    -0.06880
C2331       C  0.63698090  0.70428540  0.45194211    -0.06440
N2332       N  0.76895840  0.74957805  0.42485924    -0.25970
N2333       N  0.63998931  0.70643422  0.05015784    -0.46730
H2334       H  0.67729461  0.63054667  0.46912573     0.06920
C2335       C  0.81806130  0.77621579  0.04289395    -0.06860
Cl2336     Cl  0.72746548  0.74005117  0.49725464    -0.49860
C2337       C  0.74908901  0.82930961  0.07885990     0.42670
H2338       H  0.77378980  0.72795169  0.37445647     0.06880
N2339       N  0.78854278  0.74860702  0.09195355    -0.46570
C2340       C  0.54625298  0.82604748  0.08119620     0.42520
N2341       N  0.01023034  0.80018670  0.04316930     0.01410
C2342       C  0.92231963  0.64955446  0.04193688    -0.06460
H2343       H  0.53539874  0.68824047  0.02378950     0.06910
C2344       C  0.52997507  0.73588762  0.39795588    -0.06810
Co2345     Co  0.97749527  0.73750172  0.06769433     0.74180
N2346       N  0.00865564  0.70780453  0.03604495    -0.25990
Co2347     Co  0.97664606  0.69319500  0.49276487     0.74070
C2348       C  0.54398162  0.71959247  0.41097637     0.42510
N2349       N  0.00977337  0.78623345  0.42811009     0.01030
N2350       N  0.00871768  0.71082692  0.44959605     0.01140
N2351       N  0.92453537  0.67923092  0.09114059    -0.46840
H2352       H  0.53622090  0.78623835  0.11930717     0.06890
N2353       N  0.00869363  0.72446645  0.06478697     0.01420
N2354       N  0.94456160  0.67975401  0.44971775     0.01160
C2355       C  0.90881434  0.65404527  0.41135539     0.42770
N2356       N  0.01018283  0.80308700  0.45684030    -0.25450
C2357       C  0.92481626  0.74353191  0.09484785    -0.06370
N2358       N  0.53182989  0.82724258  0.04941747    -0.46550
N2359       N  0.92301254  0.65270583  0.44327668    -0.46780
C2360       C  0.91052711  0.75957678  0.08200583     0.42540
N2361       N  0.94521081  0.69363899  0.06492484     0.01410
N2362       N  0.94608124  0.77198450  0.45663042    -0.25470
N2363       N  0.00969988  0.78140563  0.06896846    -0.25960
N2364       N  0.94619588  0.75544565  0.42781906     0.01050
H2365       H  0.91898298  0.79112318  0.46897089     0.06940
H2366       H  0.91905053  0.69394016  0.37332382     0.06970
N2367       N  0.94466880  0.67676914  0.03613539    -0.26010
N2368       N  0.00856800  0.72925215  0.42375728    -0.25620
N2369       N  0.94595576  0.76888490  0.04334138     0.01410
C2370       C  0.54378628  0.71668821  0.07855221     0.42810
C2371       C  0.53268343  0.83025181  0.45128343    -0.06880
N2372       N  0.94524741  0.69859519  0.42389311    -0.25620
H2373       H  0.53484832  0.75006748  0.37301713     0.06960
N2374       N  0.52914414  0.73003274  0.09106872    -0.46850
H2375       H  0.53816742  0.84903554  0.46951526     0.06940
C2376       C  0.91078870  0.76280993  0.41409433     0.42640
C2377       C  0.53153320  0.79577086  0.09443635    -0.06370
Co2378     Co  0.97807901  0.78664817  0.50009452     0.73820
N2379       N  0.53066505  0.80061431  0.40215532    -0.46560
C2380       C  0.90911945  0.65133589  0.07848539     0.42910
N2381       N  0.92472047  0.77492468  0.04994715    -0.46550
Co2382     Co  0.97745368  0.74241927  0.42513168     0.73890
C2383       C  0.92356509  0.68433522  0.39826951    -0.06880
C2384       C  0.53042083  0.70198540  0.04194304    -0.06440
N2385       N  0.94629798  0.75050707  0.06909842    -0.25970
N2386       N  0.52973722  0.70448175  0.44310498    -0.46730
H2387       H  0.91681771  0.63075610  0.02372682     0.06920
C2388       C  0.92414846  0.77756702  0.45073562    -0.06860
Cl2389     Cl  0.97740935  0.73994534  0.49642067    -0.49860
C2390       C  0.54616267  0.82844744  0.41501029     0.42670
H2391       H  0.92004063  0.72923786  0.11963189     0.06880
N2392       N  0.92566127  0.74970623  0.40154811    -0.46570
C2393       C  0.74583862  0.92242613  0.08169662     0.42520
N2394       N  0.75530162  0.95773550  0.04274369     0.01410
C2395       C  0.69118103  0.54472143  0.04154915    -0.06460
H2396       H  0.61780194  0.93181026  0.02277946     0.06910
C2397       C  0.67106761  0.93707619  0.39737209    -0.06810
Co2398     Co  0.72473882  0.99013106  0.06698452     0.74180
N2399       N  0.66399870  0.95863869  0.03521804    -0.25990
Co2400     Co  0.68124907  0.99059575  0.49203655     0.74070
C2401       C  0.64078322  0.92300741  0.41051008     0.42630
N2402       N  0.74199303  0.95797528  0.42723513     0.01030
N2403       N  0.66713118  0.95847860  0.44891159     0.01140
N2404       N  0.71863425  0.54258541  0.09074149    -0.46840
H2405       H  0.71573301  0.93242609  0.11932721     0.06890
N2406       N  0.68059649  0.95867907  0.06399855     0.01420
N2407       N  0.69968551  0.52258695  0.44900983     0.01160
C2408       C  0.70942752  0.55817015  0.41063470     0.42770
N2409       N  0.75844016  0.95770264  0.45603028    -0.25450
C2410       C  0.78312164  0.54314357  0.09412570    -0.06370
N2411       N  0.76121609  0.93647132  0.04957318    -0.46550
N2412       N  0.69401434  0.54404472  0.44262896    -0.46780
C2413       C  0.81345146  0.55757595  0.08128755     0.42540
N2414       N  0.71274257  0.52211552  0.06428363     0.01410
N2415       N  0.79076034  0.52176426  0.45593065    -0.25470
N2416       N  0.73693867  0.95829166  0.06843963    -0.25960
N2417       N  0.77404456  0.52146533  0.42712046     0.01050
H2418       H  0.83690110  0.54919190  0.46824150     0.06940
H2419       H  0.73928079  0.54808381  0.37254355     0.06970
N2420       N  0.69641892  0.52258562  0.03549244    -0.26010
N2421       N  0.68575586  0.95861418  0.42307189    -0.25620
N2422       N  0.78763112  0.52198511  0.04268130     0.01410
C2423       C  0.63778347  0.92351335  0.07755889     0.42810
C2424       C  0.76363794  0.93552055  0.45022828    -0.06880
N2425       N  0.71787942  0.52192945  0.42312904    -0.25620
H2426       H  0.68039993  0.93216836  0.37240938     0.06960
N2427       N  0.66571296  0.93823435  0.09022509    -0.46850
H2428       H  0.77707209  0.93022328  0.46844229     0.06940
C2429       C  0.81660448  0.55708110  0.41338377     0.42640
C2430       C  0.72987566  0.93690362  0.09438731    -0.06370
Co2431     Co  0.77366595  0.98980439  0.49944638     0.73820
N2432       N  0.73599740  0.93730567  0.40101783    -0.46560
C2433       C  0.70590813  0.55781255  0.07828523     0.42910
N2434       N  0.81478704  0.54335410  0.04928243    -0.46550
Co2435     Co  0.72993075  0.98996828  0.42438488     0.73890
C2436       C  0.72512211  0.54352030  0.39748713    -0.06880
C2437       C  0.63647356  0.93682594  0.04097493    -0.06440
N2438       N  0.76880171  0.52156819  0.06840746    -0.25970
N2439       N  0.63984766  0.93737021  0.44253524    -0.46730
H2440       H  0.67774376  0.55009033  0.02345752     0.06920
C2441       C  0.81815426  0.54384482  0.45002155    -0.06860
Cl2442     Cl  0.72741117  0.99010233  0.49570497    -0.49860
C2443       C  0.74876816  0.92215361  0.41367073     0.42670
H2444       H  0.77348855  0.54788503  0.11889560     0.06880
N2445       N  0.78867331  0.54199415  0.40085804    -0.46570
C2446       C  0.68386639  0.58845752  0.26764631    -0.20240
C2447       C  0.70989323  0.60716103  0.28742698    -0.06810
C2448       C  0.73570504  0.62488210  0.26616071     0.14060
C2449       C  0.73482804  0.62367413  0.22530977    -0.20290
C2450       C  0.70879018  0.60494337  0.20553462    -0.06810
C2451       C  0.68297432  0.58721892  0.22683973     0.14050
C2452       C  0.65442765  0.56747905  0.20652362    -0.23640
H2453       H  0.66417673  0.57485145  0.28427650     0.15340
H2454       H  0.75449463  0.63728587  0.20869251     0.15370
C2455       C  0.76417106  0.64464714  0.28657973    -0.23590
H2456       H  0.63627950  0.55560910  0.22758958     0.05580
H2457       H  0.65648395  0.55100275  0.18876339     0.08810
H2458       H  0.64854968  0.58065404  0.18726882     0.08810
H2459       H  0.77012962  0.63145370  0.30567553     0.08790
H2460       H  0.76192481  0.66093079  0.30454866     0.08790
H2461       H  0.78232387  0.65670406  0.26557993     0.05560
C2462       C  0.86257191  0.78110199  0.22552070    -0.20240
C2463       C  0.86065186  0.75688182  0.20586816    -0.06810
C2464       C  0.85918044  0.73337588  0.22747446     0.14060
C2465       C  0.86003137  0.73490523  0.26832195    -0.20290
C2466       C  0.86202459  0.75917655  0.28791641    -0.06810
C2467       C  0.86335763  0.78260214  0.26630671     0.14050
C2468       C  0.86650232  0.80957754  0.28607555    -0.23640
H2469       H  0.86390290  0.79912882  0.20876220     0.15340
H2470       H  0.85876372  0.71694271  0.28512683     0.15370
C2471       C  0.85573637  0.70628464  0.20770536    -0.23590
H2472       H  0.86866509  0.82628852  0.26464282     0.05580
H2473       H  0.88634333  0.81949647  0.30474682     0.08810
H2474       H  0.84698619  0.80390136  0.30422661     0.08810
H2475       H  0.87517511  0.71170175  0.18953419     0.08790
H2476       H  0.83588123  0.69653510  0.18906622     0.08790
H2477       H  0.85336961  0.68950116  0.22915169     0.05560
C2478       C  0.84018137  0.60939990  0.26756063    -0.20240
C2479       C  0.86139175  0.60558214  0.28705959    -0.06810
C2480       C  0.88259802  0.60264227  0.26541554     0.14060
C2481       C  0.88208270  0.60363814  0.22463550    -0.20290
C2482       C  0.86083389  0.60736871  0.20508735    -0.06810
C2483       C  0.83971136  0.61046486  0.22672775     0.14050
C2484       C  0.81724414  0.61573031  0.20692508    -0.23640
H2485       H  0.82418690  0.61191669  0.28441530     0.15340
H2486       H  0.89808709  0.60108228  0.20780935     0.15370
C2487       C  0.90529590  0.59771819  0.28521404    -0.23590
H2488       H  0.80330857  0.61897677  0.22833780     0.05580
H2489       H  0.80266341  0.59673658  0.18838863     0.08810
H2490       H  0.82841842  0.63565279  0.18858449     0.08810
H2491       H  0.89433568  0.57777081  0.30353880     0.08790
H2492       H  0.91967677  0.61678808  0.30376725     0.08790
H2493       H  0.91940475  0.59474046  0.26380127     0.05560
C2494       C  0.59009948  0.74174835  0.26832170    -0.20240
C2495       C  0.59397734  0.72055753  0.28786275    -0.06810
C2496       C  0.59647404  0.69914125  0.26595083     0.14060
C2497       C  0.59537569  0.69979651  0.22518755    -0.20290
C2498       C  0.59155181  0.72100719  0.20567204    -0.06810
C2499       C  0.58884520  0.74229370  0.22753450     0.14050
C2500       C  0.58570734  0.76625622  0.20824578    -0.23640
H2501       H  0.58809401  0.75805638  0.28520774     0.15340
H2502       H  0.59730210  0.68343824  0.20826540     0.15370
C2503       C  0.59904656  0.67480308  0.28511672    -0.23590
H2504       H  0.58622923  0.78221275  0.22984000     0.05580
H2505       H  0.56451039  0.75699402  0.19267223     0.08810
H2506       H  0.60393458  0.77834729  0.18742801     0.08810
H2507       H  0.58074038  0.66291779  0.30590443     0.08790
H2508       H  0.62020824  0.68365304  0.30065090     0.08790
H2509       H  0.59818474  0.65873012  0.26344472     0.05560
C2510       C  0.61671823  0.87907383  0.26747637    -0.20240
C2511       C  0.59128623  0.87402532  0.28716228    -0.06810
C2512       C  0.56707981  0.87089548  0.26538232     0.14060
C2513       C  0.56870738  0.87188828  0.22456270    -0.20290
C2514       C  0.59410641  0.87675592  0.20490592    -0.06810
C2515       C  0.61862757  0.88088816  0.22674960     0.14050
C2516       C  0.64663665  0.88640053  0.20764432    -0.23640
H2517       H  0.63531027  0.88174104  0.28421723     0.15340
H2518       H  0.55012810  0.86920252  0.20777090     0.15370
C2519       C  0.54002975  0.86793119  0.28471840    -0.23590
H2520       H  0.66267983  0.88761515  0.22951225     0.05580
H2521       H  0.65730788  0.90768130  0.19234727     0.08810
H2522       H  0.64205493  0.86853026  0.18676888     0.08810
H2523       H  0.54621676  0.88622321  0.30553700     0.08790
H2524       H  0.52802301  0.84679028  0.30023846     0.08790
H2525       H  0.52465495  0.86854632  0.26315064     0.05560
C2526       C  0.77121688  0.87993681  0.22548366    -0.20240
C2527       C  0.74544462  0.87320283  0.20547079    -0.06810
C2528       C  0.71968723  0.86571297  0.22654023     0.14060
C2529       C  0.72061744  0.86669705  0.26740246    -0.20290
C2530       C  0.74652351  0.87391596  0.28743884    -0.06810
C2531       C  0.77199334  0.88010062  0.26632748     0.14050
C2532       C  0.80003589  0.88718707  0.28685124    -0.23640
H2533       H  0.79078601  0.88516880  0.20903236     0.15340
H2534       H  0.70099022  0.86128715  0.28380872     0.15370
C2535       C  0.69110308  0.85560644  0.20579981    -0.23590
H2536       H  0.81797247  0.89210640  0.26590687     0.05580
H2537       H  0.79668731  0.86828799  0.30481043     0.08810
H2538       H  0.80704395  0.90657159  0.30591481     0.08810
H2539       H  0.68600372  0.83634514  0.18734200     0.08790
H2540       H  0.69263276  0.87342565  0.18705237     0.08790
H2541       H  0.67276646  0.84895238  0.22664645     0.05560
C2542       C  0.74596770  0.87403034  0.66249466     0.03200
C2543       C  0.74547416  0.89697408  0.64274783    -0.12950
C2544       C  0.74739805  0.89866013  0.60196588     0.00700
C2545       C  0.74993928  0.87716575  0.58095429    -0.11480
C2546       C  0.74910039  0.85339021  0.60053346     0.03190
C2547       C  0.74733546  0.85208695  0.64131468    -0.10900
H2548       H  0.74408781  0.91375917  0.65929859     0.08780
H2549       H  0.75109478  0.87818171  0.54944700     0.06310
H2550       H  0.74716615  0.83407791  0.65670141     0.06160
C2551       C  0.74633647  0.87394292  0.83044079     0.03200
C2552       C  0.74678718  0.89705038  0.85122208    -0.12950
C2553       C  0.74865978  0.89791512  0.89209701     0.00700
C2554       C  0.74988149  0.87530140  0.91204105    -0.11480
C2555       C  0.74774997  0.85132908  0.89138763     0.03190
C2556       C  0.74607747  0.85085559  0.85064669    -0.10900
H2557       H  0.74640430  0.91464907  0.83549460     0.08780
H2558       H  0.75101578  0.87562119  0.94355692     0.06310
H2559       H  0.74503165  0.83270500  0.83442596     0.06160
C2560       C  0.59170994  0.87434065  0.83040144     0.03200
C2561       C  0.61464337  0.89792149  0.85009517    -0.12950
C2562       C  0.61529168  0.89912126  0.89083790     0.00700
C2563       C  0.59221194  0.87698782  0.91221274    -0.11480
C2564       C  0.56980720  0.85257126  0.89291441     0.03190
C2565       C  0.57011448  0.85105233  0.85208814    -0.10900
H2566       H  0.63193244  0.91560456  0.83357314     0.08780
H2567       H  0.59251798  0.87801740  0.94373953     0.06310
H2568       H  0.55343221  0.83184206  0.83721300     0.06160
C2569       C  0.59371995  0.87625634  0.66168068     0.03200
C2570       C  0.61441918  0.90018929  0.64007868    -0.12950
C2571       C  0.61371337  0.89961797  0.59927361     0.00700
C2572       C  0.59083366  0.87572610  0.57985426    -0.11480
C2573       C  0.56991549  0.85163375  0.60116971     0.03190
C2574       C  0.57171435  0.85189619  0.64194556    -0.10900
H2575       H  0.63080835  0.91961034  0.65491050     0.08780
H2576       H  0.59001257  0.87531640  0.54831617     0.06310
H2577       H  0.55560972  0.83335856  0.65852938     0.06160
C2578       C  0.59174892  0.72085086  0.66250399     0.03200
C2579       C  0.61568816  0.72233120  0.64268193    -0.12950
C2580       C  0.61556963  0.72021851  0.60196423     0.00700
C2581       C  0.59134184  0.71694036  0.58078802    -0.11480
C2582       C  0.56781779  0.71671707  0.60028242     0.03190
C2583       C  0.56782442  0.71792392  0.64109721    -0.10900
H2584       H  0.63422663  0.72462163  0.65918357     0.08780
H2585       H  0.59142564  0.71595617  0.54927730     0.06310
H2586       H  0.54886955  0.71598967  0.65619012     0.06160
C2587       C  0.59334605  0.72027675  0.83106665     0.03200
C2588       C  0.56957561  0.71935851  0.85060894    -0.12950
C2589       C  0.56799371  0.71813128  0.89134809     0.00700
C2590       C  0.58998124  0.71686643  0.91278225    -0.11480
C2591       C  0.61458783  0.71916281  0.89362340     0.03190
C2592       C  0.61642944  0.72155989  0.85286985    -0.10900
H2593       H  0.55207264  0.71927750  0.83396048     0.08780
H2594       H  0.58871564  0.71572483  0.94428103     0.06310
H2595       H  0.63574162  0.72418503  0.83808439     0.06160
C2596       C  0.86149133  0.60548610  0.83007957     0.03200
C2597       C  0.88389690  0.62903662  0.85025465    -0.12950
C2598       C  0.88530148  0.62869514  0.89096483     0.00700
C2599       C  0.86400280  0.60446006  0.91167549    -0.11480
C2600       C  0.84048365  0.58142362  0.89180232     0.03190
C2601       C  0.83932466  0.58210661  0.85093066    -0.10900
H2602       H  0.90052415  0.64745836  0.83402208     0.08780
H2603       H  0.86495091  0.60423367  0.94318438     0.06310
H2604       H  0.82155727  0.56420829  0.83525959     0.06160
C2605       C  0.86073547  0.60692567  0.66204506     0.03200
C2606       C  0.88399479  0.62905693  0.64099698    -0.12950
C2607       C  0.88492064  0.62744483  0.60020966     0.00700
C2608       C  0.86240818  0.60330133  0.58054745    -0.11480
C2609       C  0.83856070  0.58162473  0.60142163     0.03190
C2610       C  0.83804402  0.58343307  0.64211169    -0.10900
H2611       H  0.90150971  0.64732282  0.65649026     0.08780
H2612       H  0.86274635  0.60205538  0.54906797     0.06310
H2613       H  0.82021457  0.56621095  0.65848953     0.06160
C2614       C  0.86111663  0.75731089  0.66278668     0.03200
C2615       C  0.88479298  0.75849546  0.64280619    -0.12950
C2616       C  0.88651480  0.76076959  0.60212415     0.00700
C2617       C  0.86470458  0.76280900  0.58128710    -0.11480
C2618       C  0.84047448  0.76101267  0.60098514     0.03190
C2619       C  0.83885173  0.75829945  0.64174699    -0.10900
H2620       H  0.90223988  0.75821610  0.65912349     0.08780
H2621       H  0.86590909  0.76440021  0.54981654     0.06310
H2622       H  0.82047010  0.75733498  0.65724782     0.06160
C2623       C  0.86219773  0.75939711  0.83097055     0.03200
C2624       C  0.88568070  0.76067098  0.85175312    -0.12950
C2625       C  0.88643154  0.76247635  0.89262759     0.00700
C2626       C  0.86341331  0.76297026  0.91260973    -0.11480
C2627       C  0.83906226  0.75993560  0.89198668     0.03190
C2628       C  0.83858373  0.75806672  0.85127354    -0.10900
H2629       H  0.90360611  0.76084882  0.83602738     0.08780
H2630       H  0.86371403  0.76415765  0.94412547     0.06310
H2631       H  0.81997690  0.75599687  0.83514332     0.06160
C2632       C  0.70965713  0.60680705  0.83037946     0.03200
C2633       C  0.70985721  0.58373967  0.84999446    -0.12950
C2634       C  0.70787993  0.58197739  0.89069025     0.00700
C2635       C  0.70516690  0.60330704  0.91185349    -0.11480
C2636       C  0.70607997  0.62717912  0.89247101     0.03190
C2637       C  0.70833502  0.62879775  0.85164776    -0.10900
H2638       H  0.71122502  0.56697296  0.83336709     0.08780
H2639       H  0.70379076  0.60206984  0.94334135     0.06310
H2640       H  0.70854430  0.64684402  0.83631851     0.06160
C2641       C  0.70868332  0.60523539  0.66257126     0.03200
C2642       C  0.70770158  0.58212375  0.64120851    -0.12950
C2643       C  0.70586804  0.58174945  0.60037438     0.00700
C2644       C  0.70484518  0.60467216  0.58104419    -0.11480
C2645       C  0.70726994  0.62854896  0.60228864     0.03190
C2646       C  0.70917705  0.62867416  0.64300611    -0.10900
H2647       H  0.70799085  0.56430329  0.65646955     0.08780
H2648       H  0.70365213  0.60466213  0.54954443     0.06310
H2649       H  0.71039296  0.64671826  0.65968860     0.06160
C2650       C  0.74619190  0.82613554  0.91181031     0.42520
N2651       N  0.75582503  0.80028270  0.95043599     0.01410
C2652       C  0.69077411  0.64933827  0.95110559    -0.06460
H2653       H  0.61822538  0.69097263  0.97014114     0.06910
C2654       C  0.67140681  0.73780603  0.59519135    -0.06810
Co2655     Co  0.72498085  0.73750157  0.92602957     0.74180
N2656       N  0.66424111  0.70910166  0.95754354    -0.25990
Co2657     Co  0.68103449  0.69380124  0.00076079     0.74070
C2658       C  0.64110715  0.72201580  0.58199175     0.42630
N2659       N  0.74231171  0.78672615  0.56558159     0.01030
N2660       N  0.66715316  0.71212398  0.54388493     0.01140
N2661       N  0.71853903  0.67893227  0.90221426    -0.46840
H2662       H  0.71604991  0.78620730  0.87408368     0.06890
N2663       N  0.68103046  0.72556982  0.92889458     0.01420
N2664       N  0.69916091  0.67985732  0.54392598     0.01160
C2665       C  0.70870304  0.65387355  0.58240632     0.42770
N2666       N  0.75883488  0.80335308  0.53684898    -0.25450
C2667       C  0.78334226  0.74221369  0.89933126    -0.06370
N2668       N  0.76168279  0.82744692  0.94382039    -0.46550
N2669       N  0.69332817  0.65269099  0.55035253    -0.46780
C2670       C  0.81365463  0.75798419  0.91242543     0.42540
N2671       N  0.71255004  0.69348657  0.92860149     0.01410
N2672       N  0.79072714  0.77114601  0.53709668    -0.25470
N2673       N  0.73746604  0.78148103  0.92469715    -0.25960
N2674       N  0.77396240  0.75474365  0.56581860     0.01050
H2675       H  0.83680173  0.78955100  0.52469079     0.06940
H2676       H  0.73874399  0.69367644  0.62043641     0.06970
N2677       N  0.69605367  0.67671988  0.95725201    -0.26010
N2678       N  0.68588030  0.73048402  0.56970525    -0.25620
N2679       N  0.78773925  0.76790860  0.95065484     0.01410
C2680       C  0.63868866  0.71953069  0.91573073     0.42810
C2681       C  0.76406456  0.83074070  0.54248156    -0.06880
N2682       N  0.71743386  0.69859933  0.56981918    -0.25620
H2683       H  0.68090328  0.75210346  0.62004842     0.06960
N2684       N  0.66654832  0.73199113  0.90298443    -0.46850
H2685       H  0.77752677  0.84939317  0.52424696     0.06940
C2686       C  0.81646168  0.76126305  0.57934529     0.42640
C2687       C  0.73029793  0.79581508  0.89894253    -0.06370
Co2688     Co  0.77390716  0.78629670  0.99366137     0.73820
N2689       N  0.73625496  0.80145687  0.59160314    -0.46560
C2690       C  0.70568901  0.65098530  0.91448357     0.42910
N2691       N  0.81488993  0.77359694  0.94427467    -0.46550
Co2692     Co  0.72991596  0.74266168  0.56851753     0.73890
C2693       C  0.72453798  0.68415944  0.59552101    -0.06880
C2694       C  0.63698090  0.70428540  0.95194211    -0.06440
N2695       N  0.76895840  0.74957805  0.92485924    -0.25970
N2696       N  0.63998931  0.70643422  0.55015784    -0.46730
H2697       H  0.67729461  0.63054667  0.96912573     0.06920
C2698       C  0.81806130  0.77621579  0.54289395    -0.06860
Cl2699     Cl  0.72746548  0.74005117  0.99725464    -0.49860
C2700       C  0.74908901  0.82930961  0.57885990     0.42670
H2701       H  0.77378980  0.72795168  0.87445647     0.06880
N2702       N  0.78854278  0.74860702  0.59195355    -0.46570
C2703       C  0.54625298  0.82604749  0.58119620     0.42520
N2704       N  0.01023034  0.80018670  0.54316930     0.01410
C2705       C  0.92231963  0.64955446  0.54193689    -0.06460
H2706       H  0.53539874  0.68824047  0.52378950     0.06910
C2707       C  0.52997507  0.73588762  0.89795587    -0.06810
Co2708     Co  0.97749527  0.73750173  0.56769433     0.74180
N2709       N  0.00865564  0.70780453  0.53604496    -0.25990
Co2710     Co  0.97664605  0.69319500  0.99276487     0.74070
C2711       C  0.54398162  0.71959247  0.91097636     0.42510
N2712       N  0.00977337  0.78623344  0.92811009     0.01030
N2713       N  0.00871768  0.71082691  0.94959605     0.01140
N2714       N  0.92453538  0.67923093  0.59114059    -0.46840
H2715       H  0.53622090  0.78623836  0.61930718     0.06890
N2716       N  0.00869364  0.72446645  0.56478697     0.01420
N2717       N  0.94456160  0.67975401  0.94971775     0.01160
C2718       C  0.90881434  0.65404527  0.91135539     0.42770
N2719       N  0.01018282  0.80308700  0.95684029    -0.25450
C2720       C  0.92481626  0.74353191  0.59484785    -0.06370
N2721       N  0.53182989  0.82724258  0.54941747    -0.46550
N2722       N  0.92301254  0.65270582  0.94327668    -0.46780
C2723       C  0.91052711  0.75957678  0.58200583     0.42540
N2724       N  0.94521081  0.69363899  0.56492484     0.01410
N2725       N  0.94608124  0.77198450  0.95663042    -0.25470
N2726       N  0.00969988  0.78140563  0.56896846    -0.25960
N2727       N  0.94619587  0.75544565  0.92781905     0.01050
H2728       H  0.91898298  0.79112318  0.96897089     0.06940
H2729       H  0.91905053  0.69394016  0.87332382     0.06970
N2730       N  0.94466880  0.67676914  0.53613539    -0.26010
N2731       N  0.00856800  0.72925215  0.92375728    -0.25620
N2732       N  0.94595576  0.76888490  0.54334138     0.01410
C2733       C  0.54378628  0.71668822  0.57855221     0.42810
C2734       C  0.53268343  0.83025180  0.95128343    -0.06880
N2735       N  0.94524741  0.69859519  0.92389310    -0.25620
H2736       H  0.53484832  0.75006748  0.87301713     0.06960
N2737       N  0.52914414  0.73003274  0.59106872    -0.46850
H2738       H  0.53816742  0.84903554  0.96951526     0.06940
C2739       C  0.91078869  0.76280993  0.91409432     0.42640
C2740       C  0.53153320  0.79577087  0.59443635    -0.06370
Co2741     Co  0.97807901  0.78664816  0.00009452     0.73820
N2742       N  0.53066505  0.80061431  0.90215531    -0.46560
C2743       C  0.90911945  0.65133590  0.57848539     0.42910
N2744       N  0.92472047  0.77492468  0.54994715    -0.46550
Co2745     Co  0.97745368  0.74241927  0.92513168     0.73890
C2746       C  0.92356509  0.68433521  0.89826951    -0.06880
C2747       C  0.53042084  0.70198540  0.54194304    -0.06440
N2748       N  0.94629799  0.75050707  0.56909842    -0.25970
N2749       N  0.52973722  0.70448175  0.94310498    -0.46730
H2750       H  0.91681771  0.63075611  0.52372682     0.06920
C2751       C  0.92414846  0.77756701  0.95073562    -0.06860
Cl2752     Cl  0.97740935  0.73994534  0.99642067    -0.49860
C2753       C  0.54616267  0.82844744  0.91501029     0.42670
H2754       H  0.92004063  0.72923787  0.61963189     0.06880
N2755       N  0.92566127  0.74970622  0.90154811    -0.46570
C2756       C  0.74583862  0.92242613  0.58169662     0.42520
N2757       N  0.75530162  0.95773550  0.54274369     0.01410
C2758       C  0.69118103  0.54472143  0.54154915    -0.06460
H2759       H  0.61780194  0.93181027  0.52277945     0.06910
C2760       C  0.67106761  0.93707619  0.89737210    -0.06810
Co2761     Co  0.72473882  0.99013106  0.56698451     0.74180
N2762       N  0.66399870  0.95863869  0.53521804    -0.25990
Co2763     Co  0.68124907  0.99059574  0.99203656     0.74070
C2764       C  0.64078321  0.92300741  0.91051009     0.42630
N2765       N  0.74199303  0.95797528  0.92723514     0.01030
N2766       N  0.66713117  0.95847860  0.94891160     0.01140
N2767       N  0.71863425  0.54258541  0.59074149    -0.46840
H2768       H  0.71573301  0.93242610  0.61932721     0.06890
N2769       N  0.68059649  0.95867907  0.56399854     0.01420
N2770       N  0.69968551  0.52258694  0.94900983     0.01160
C2771       C  0.70942752  0.55817015  0.91063470     0.42770
N2772       N  0.75844015  0.95770263  0.95603029    -0.25450
C2773       C  0.78312164  0.54314357  0.59412570    -0.06370
N2774       N  0.76121609  0.93647133  0.54957318    -0.46550
N2775       N  0.69401433  0.54404472  0.94262897    -0.46780
C2776       C  0.81345146  0.55757595  0.58128754     0.42540
N2777       N  0.71274258  0.52211552  0.56428362     0.01410
N2778       N  0.79076033  0.52176425  0.95593066    -0.25470
N2779       N  0.73693867  0.95829166  0.56843963    -0.25960
N2780       N  0.77404456  0.52146533  0.92712046     0.01050
H2781       H  0.83690110  0.54919189  0.96824150     0.06940
H2782       H  0.73928078  0.54808381  0.87254355     0.06970
N2783       N  0.69641892  0.52258562  0.53549243    -0.26010
N2784       N  0.68575586  0.95861418  0.92307190    -0.25620
N2785       N  0.78763112  0.52198511  0.54268129     0.01410
C2786       C  0.63778347  0.92351335  0.57755889     0.42810
C2787       C  0.76363794  0.93552054  0.95022828    -0.06880
N2788       N  0.71787941  0.52192944  0.92312905    -0.25620
H2789       H  0.68039992  0.93216836  0.87240938     0.06960
N2790       N  0.66571296  0.93823436  0.59022509    -0.46850
H2791       H  0.77707209  0.93022328  0.96844229     0.06940
C2792       C  0.81660448  0.55708110  0.91338377     0.42640
C2793       C  0.72987566  0.93690363  0.59438731    -0.06370
Co2794     Co  0.77366595  0.98980439  0.99944638     0.73820
N2795       N  0.73599739  0.93730567  0.90101783    -0.46560
C2796       C  0.70590813  0.55781255  0.57828523     0.42910
N2797       N  0.81478704  0.54335410  0.54928243    -0.46550
Co2798     Co  0.72993075  0.98996828  0.92438488     0.73890
C2799       C  0.72512210  0.54352030  0.89748713    -0.06880
C2800       C  0.63647356  0.93682595  0.54097493    -0.06440
N2801       N  0.76880171  0.52156819  0.56840745    -0.25970
N2802       N  0.63984766  0.93737021  0.94253524    -0.46730
H2803       H  0.67774377  0.55009034  0.52345752     0.06920
C2804       C  0.81815425  0.54384482  0.95002155    -0.06860
Cl2805     Cl  0.72741117  0.99010233  0.99570497    -0.49860
C2806       C  0.74876815  0.92215360  0.91367073     0.42670
H2807       H  0.77348855  0.54788503  0.61889560     0.06880
N2808       N  0.78867331  0.54199414  0.90085804    -0.46570
C2809       C  0.68386640  0.58845749  0.76764631    -0.20240
C2810       C  0.70989323  0.60716103  0.78742698    -0.06810
C2811       C  0.73570503  0.62488211  0.76616071     0.14060
C2812       C  0.73482804  0.62367415  0.72530977    -0.20290
C2813       C  0.70879018  0.60494337  0.70553462    -0.06810
C2814       C  0.68297433  0.58721890  0.72683973     0.14050
C2815       C  0.65442766  0.56747900  0.70652362    -0.23640
H2816       H  0.66417674  0.57485141  0.78427650     0.15340
H2817       H  0.75449462  0.63728590  0.70869251     0.15370
C2818       C  0.76417104  0.64464718  0.78657973    -0.23590
H2819       H  0.63627951  0.55560904  0.72758958     0.05580
H2820       H  0.65648399  0.55100271  0.68876340     0.08810
H2821       H  0.64854967  0.58065398  0.68726882     0.08810
H2822       H  0.77012962  0.63145375  0.80567554     0.08790
H2823       H  0.76192478  0.66093082  0.80454866     0.08790
H2824       H  0.78232385  0.65670411  0.76557993     0.05560
C2825       C  0.86257192  0.78110199  0.72552070    -0.20240
C2826       C  0.86065186  0.75688183  0.70586816    -0.06810
C2827       C  0.85918044  0.73337588  0.72747446     0.14060
C2828       C  0.86003137  0.73490523  0.76832195    -0.20290
C2829       C  0.86202459  0.75917655  0.78791641    -0.06810
C2830       C  0.86335763  0.78260214  0.76630671     0.14050
C2831       C  0.86650232  0.80957755  0.78607556    -0.23640
H2832       H  0.86390291  0.79912883  0.70876220     0.15340
H2833       H  0.85876372  0.71694271  0.78512683     0.15370
C2834       C  0.85573637  0.70628464  0.70770536    -0.23590
H2835       H  0.86866510  0.82628853  0.76464282     0.05580
H2836       H  0.88634333  0.81949648  0.80474683     0.08810
H2837       H  0.84698620  0.80390137  0.80422661     0.08810
H2838       H  0.87517510  0.71170175  0.68953418     0.08790
H2839       H  0.83588122  0.69653510  0.68906622     0.08790
H2840       H  0.85336960  0.68950116  0.72915168     0.05560
C2841       C  0.84018137  0.60939989  0.76756063    -0.20240
C2842       C  0.86139175  0.60558214  0.78705959    -0.06810
C2843       C  0.88259802  0.60264226  0.76541554     0.14060
C2844       C  0.88208270  0.60363814  0.72463550    -0.20290
C2845       C  0.86083389  0.60736870  0.70508735    -0.06810
C2846       C  0.83971136  0.61046486  0.72672775     0.14050
C2847       C  0.81724414  0.61573030  0.70692508    -0.23640
H2848       H  0.82418690  0.61191669  0.78441530     0.15340
H2849       H  0.89808709  0.60108228  0.70780935     0.15370
C2850       C  0.90529590  0.59771818  0.78521404    -0.23590
H2851       H  0.80330857  0.61897677  0.72833780     0.05580
H2852       H  0.80266341  0.59673657  0.68838863     0.08810
H2853       H  0.82841841  0.63565278  0.68858449     0.08810
H2854       H  0.89433568  0.57777080  0.80353879     0.08790
H2855       H  0.91967676  0.61678807  0.80376725     0.08790
H2856       H  0.91940475  0.59474046  0.76380127     0.05560
C2857       C  0.59009948  0.74174835  0.76832170    -0.20240
C2858       C  0.59397734  0.72055753  0.78786275    -0.06810
C2859       C  0.59647404  0.69914125  0.76595083     0.14060
C2860       C  0.59537569  0.69979652  0.72518755    -0.20290
C2861       C  0.59155181  0.72100719  0.70567205    -0.06810
C2862       C  0.58884521  0.74229371  0.72753450     0.14050
C2863       C  0.58570735  0.76625622  0.70824578    -0.23640
H2864       H  0.58809402  0.75805639  0.78520774     0.15340
H2865       H  0.59730210  0.68343825  0.70826540     0.15370
C2866       C  0.59904655  0.67480308  0.78511672    -0.23590
H2867       H  0.58622925  0.78221275  0.72984000     0.05580
H2868       H  0.56451040  0.75699403  0.69267223     0.08810
H2869       H  0.60393459  0.77834730  0.68742801     0.08810
H2870       H  0.58074037  0.66291779  0.80590443     0.08790
H2871       H  0.62020824  0.68365304  0.80065090     0.08790
H2872       H  0.59818473  0.65873012  0.76344472     0.05560
C2873       C  0.61671823  0.87907384  0.76747637    -0.20240
C2874       C  0.59128622  0.87402532  0.78716228    -0.06810
C2875       C  0.56707981  0.87089548  0.76538232     0.14060
C2876       C  0.56870738  0.87188829  0.72456270    -0.20290
C2877       C  0.59410641  0.87675593  0.70490592    -0.06810
C2878       C  0.61862756  0.88088818  0.72674960     0.14050
C2879       C  0.64663666  0.88640055  0.70764433    -0.23640
H2880       H  0.63531027  0.88174105  0.78421723     0.15340
H2881       H  0.55012809  0.86920253  0.70777090     0.15370
C2882       C  0.54002974  0.86793119  0.78471840    -0.23590
H2883       H  0.66267983  0.88761518  0.72951225     0.05580
H2884       H  0.65730788  0.90768133  0.69234728     0.08810
H2885       H  0.64205494  0.86853028  0.68676888     0.08810
H2886       H  0.54621675  0.88622321  0.80553700     0.08790
H2887       H  0.52802301  0.84679028  0.80023846     0.08790
H2888       H  0.52465495  0.86854632  0.76315064     0.05560
C2889       C  0.77121687  0.87993680  0.72548366    -0.20240
C2890       C  0.74544461  0.87320283  0.70547079    -0.06810
C2891       C  0.71968722  0.86571298  0.72654023     0.14060
C2892       C  0.72061744  0.86669706  0.76740246    -0.20290
C2893       C  0.74652351  0.87391596  0.78743884    -0.06810
C2894       C  0.77199334  0.88010061  0.76632748     0.14050
C2895       C  0.80003588  0.88718705  0.78685124    -0.23640
H2896       H  0.79078600  0.88516878  0.70903235     0.15340
H2897       H  0.70099022  0.86128717  0.78380872     0.15370
C2898       C  0.69110308  0.85560646  0.70579981    -0.23590
H2899       H  0.81797246  0.89210638  0.76590686     0.05580
H2900       H  0.79668730  0.86828797  0.80481043     0.08810
H2901       H  0.80704395  0.90657157  0.80591481     0.08810
H2902       H  0.68600372  0.83634516  0.68734200     0.08790
H2903       H  0.69263276  0.87342568  0.68705238     0.08790
H2904       H  0.67276646  0.84895241  0.72664645     0.05560
loop_ 
_geom_bond_atom_site_label_1 
_geom_bond_atom_site_label_2 
_geom_bond_distance 
_geom_bond_site_symmetry_2 
_ccdc_geom_bond_type 
C1            C2   1.400       .  A
C1            C6   1.398       .  A
C1          C349   1.476       .  S
C2            C3   1.404       .  A
C2            H7   1.084       .  S
C3            C4   1.405       .  A
C3          C215   1.473       .  S
C4            C5   1.405       .  A
C4            H8   1.084       .  S
C5            C6   1.403       .  A
C5          C159   1.471       .  S
C6            H9   1.084       .  S
C10          C11   1.401       .  A
C10          C15   1.397       .  A
C10         C352   1.477       .  S
C11          C12   1.406       .  A
C11          H16   1.084       .  S
C12          C13   1.406       .  A
C12         C265   1.474       .  S
C13          C14   1.404       .  A
C13          H17   1.084       .  S
C14          C15   1.401       .  A
C14         C109   1.470       .  S
C15          H18   1.084       .  S
C19          C20   1.401       .  A
C19          C24   1.403       .  A
C19         C333   1.485       .  S
C20          C21   1.400       .  A
C20          H25   1.084       .  S
C21          C22   1.403       .  A
C21         C223   1.469       .  S
C22          C23   1.405       .  A
C22          H26   1.084       .  S
C23          C24   1.405       .  A
C23         C212   1.473       .  S
C24          H27   1.082       .  S
C28          C29   1.401       .  A
C28          C33   1.402       .  A
C28         C336   1.485       .  S
C29          C30   1.402       .  A
C29          H34   1.082       .  S
C30          C31   1.403       .  A
C30         C245   1.470       .  S
C31          C32   1.404       .  A
C31          H35   1.084       .  S
C32          C33   1.403       .  A
C32         C162   1.472       .  S
C33          H36   1.084       .  S
C37          C38   1.401       .  A
C37          C42   1.401       .  A
C37         C320   1.483       .  S
C38          C39   1.402       .  A
C38          H43   1.083       .  S
C39          C40   1.404       .  A
C39         C117   1.471       .  S
C40          C41   1.404       .  A
C40          H44   1.083       .  S
C41          C42   1.403       .  A
C41         C192   1.470       .  S
C42          H45   1.084       .  S
C46          C47   1.401       .  A
C46          C51   1.402       .  A
C46         C317   1.484       .  S
C47          C48   1.401       .  A
C47          H52   1.084       .  S
C48          C49   1.403       .  A
C48         C170   1.469       .  S
C49          C50   1.405       .  A
C49          H53   1.084       .  S
C50          C51   1.404       .  A
C50         C139   1.472       .  S
C51          H54   1.083       .  S
C55          C56   1.397       .  A
C55          C60   1.401       .  A
C55         C301   1.477       .  S
C56          C57   1.401       .  A
C56          H61   1.084       .  S
C57          C58   1.404       .  A
C57         C177   1.469       .  S
C58          C59   1.405       .  A
C58          H62   1.084       .  S
C59          C60   1.406       .  A
C59         C251   1.474       .  S
C60          H63   1.084       .  S
C64          C65   1.401       .  A
C64          C69   1.398       .  A
C64         C304   1.478       .  S
C65          C66   1.405       .  A
C65          H70   1.084       .  S
C66          C67   1.406       .  A
C66         C202   1.473       .  S
C67          C68   1.404       .  A
C67          H71   1.084       .  S
C68          C69   1.402       .  A
C68         C235   1.470       .  S
C69          H72   1.084       .  S
C73          C74   1.398       .  A
C73          C78   1.402       .  A
C73         C285   1.480       .  S
C74          C75   1.402       .  A
C74          H79   1.084       .  S
C75          C76   1.404       .  A
C75         C182   1.470       .  S
C76          C77   1.406       .  A
C76          H80   1.084       .  S
C77          C78   1.406       .  A
C77         C145   1.474       .  S
C78          H81   1.084       .  S
C82          C83   1.402       .  A
C82          C87   1.397       .  A
C82         C288   1.479       .  S
C83          C84   1.406       .  A
C83          H88   1.084       .  S
C84          C85   1.405       .  A
C84         C198   1.474       .  S
C85          C86   1.404       .  A
C85          H89   1.084       .  S
C86          C87   1.401       .  A
C86         C129   1.469       .  S
C87          H90   1.084       .  S
C91          C92   1.397       .  A
C91          C96   1.401       .  A
C91         C269   1.475       .  S
C92          C93   1.401       .  A
C92          H97   1.084       .  S
C93          C94   1.404       .  A
C93         C230   1.469       .  S
C94          C95   1.405       .  A
C94          H98   1.084       .  S
C95          C96   1.406       .  A
C95         C149   1.474       .  S
C96          H99   1.084       .  S
C100        C101   1.400       .  A
C100        C105   1.397       .  A
C100        C272   1.476       .  S
C101        C102   1.405       .  A
C101        H106   1.084       .  S
C102        C103   1.405       .  A
C102        C255   1.473       .  S
C103        C104   1.404       .  A
C103        H107   1.084       .  S
C104        C105   1.402       .  A
C104        C124   1.470       .  S
C105        H108   1.084       .  S
C109        C146   1.455       .  S
C109        N127   1.351       .  A
N110        N127   1.327       .  A
N110        N132   1.320       .  A
N110       Co147   2.089       .  S
C111        C149   1.462       .  S
C111        H156   1.082       .  S
C111        N136   1.344       .  A
H112        C153   1.082       .  S
C113        C117   1.457       .  S
C113        H142   1.081       .  S
C113        N137   1.338       .  A
Co114       N132   2.072       .  S
Co114       N122   2.078       .  S
Co114       N154   2.076       .  S
Co114       N130   2.076       .  S
Co114      Cl158   2.449       .  S
N115        C153   1.343       .  A
N115        N122   1.320       .  A
N115       Co116   2.087       .  S
Co116       N136   2.092       .  S
Co116       N482   2.089       .  S
Co116       N486   2.088       .  S
Co116      Cl158   2.450       .  S
C117        N155   1.350       .  A
N118        N125   1.320       .  A
N118        N148   1.323       .  A
N118       Co151   2.080       .  S
N119        N137   1.320       .  A
N119        N155   1.326       .  A
N119       Co479   2.089       .  S
N120        C149   1.347       .  A
N120        N130   1.323       .  A
H121        C146   1.081       .  S
N122        N143   1.323       .  A
N123        N141   1.321       .  A
N123        N128   1.326       .  A
N123       Co479   2.088       .  S
C124        C152   1.456       .  S
C124        N128   1.350       .  A
N125        C140   1.343       .  A
N125       Co510   2.085   1_554  S
C126        C129   1.456       .  S
C126        H160   1.081       .  S
C126        N154   1.337       .  A
C129        N150   1.350       .  A
N130        N136   1.320       .  A
N131        C157   1.343       .  A
N131        N133   1.320       .  A
N131       Co510   2.089   1_554  S
N132        C146   1.336       .  A
N133        N161   1.323       .  A
N133       Co151   2.081       .  S
H134        C157   1.081       .  S
H135        C152   1.081       .  S
N137       Co151   2.078       .  S
N138        N150   1.326       .  A
N138        N154   1.320       .  A
N138       Co147   2.086       .  S
C139        C153   1.460       .  S
C139        N143   1.348       .  A
C140        C159   1.459       .  S
C140        H144   1.081       .  S
N141        C152   1.337       .  A
N141       Co151   2.077       .  S
C145        C157   1.461       .  S
C145        N161   1.349       .  A
Co147       N488   2.085       .  S
Co147       N494   2.089       .  S
Co147      Cl158   2.450       .  S
N148        C159   1.349       .  A
Co151      Cl521   2.451   1_554  S
Cl158      Co514   2.451       .  S
C162        C199   1.458       .  S
C162        N180   1.350       .  A
N163        N185   1.320       .  A
N163       N1632   1.326       .  A
N163       Co563   2.089       .  S
C164        C202   1.460       .  S
C164        H209   1.081       .  S
C164        N189   1.343       .  A
H165        C206   1.082       .  S
C166        C170   1.456       .  S
C166        H195   1.081       .  S
C166       N1642   1.337       .  A
Co167       N185   2.080       .  S
Co167       N175   2.078       .  S
Co167       N207   2.075       .  S
Co167       N183   2.081       .  S
Co167      Cl574   2.451   1_554  S
N168       C1658   1.343       .  A
N168        N175   1.320       .  A
N168       Co532   2.086   1_554  S
Co169       N172   2.087       .  S
Co169       N176   2.086       .  S
Co169       N531   2.086       .  S
Co169       N552   2.087       .  S
Co169      Cl211   2.449       .  S
C170        N208   1.350       .  A
N171        N178   1.320       .  A
N171       N1653   1.323       .  A
N171       Co204   2.080       .  S
N172        N190   1.320       .  A
N172       N1660   1.326       .  A
N173        C202   1.349       .  A
N173        N183   1.323       .  A
H174        C199   1.081       .  S
N175       N1648   1.322       .  A
N176        N194   1.320       .  A
N176        N181   1.326       .  A
C177        C205   1.457       .  S
C177        N181   1.349       .  A
N178       C1645   1.342       .  A
N178       Co200   2.088       .  S
C179        C182   1.455       .  S
C179        H213   1.081       .  S
C179        N207   1.336       .  A
N180       N1615   1.326       .  A
C182        N203   1.351       .  A
N183        N189   1.320       .  A
N184        C210   1.343       .  A
N184        N186   1.320       .  A
N184       Co200   2.090       .  S
N185       C1651   1.339       .  A
N186        N214   1.323       .  A
N186       Co204   2.080       .  S
H187        C210   1.082       .  S
H188        C205   1.081       .  S
N189       Co532   2.087   1_554  S
N190       C1618   1.337       .  A
N190       Co204   2.077       .  S
N191        N203   1.327       .  A
N191        N207   1.320       .  A
N191       Co563   2.091       .  S
C192        C206   1.460       .  S
C192        N196   1.348       .  A
C193        C212   1.460       .  S
C193        H197   1.081       .  S
C193       N1630   1.342       .  A
N194        C205   1.337       .  A
N194       Co204   2.077       .  S
N196       N1627   1.322       .  A
C198        C210   1.461       .  S
C198        N214   1.348       .  A
C199       N1637   1.339       .  A
Co200       N526   2.089       .  S
Co200       N554   2.091       .  S
Co200      Cl211   2.449       .  S
N201        C212   1.349       .  A
N201       N1623   1.323       .  A
Co204      Cl211   2.452       .  S
C206       N1620   1.343       .  A
N208       N1624   1.326       .  A
Cl211      Co530   2.451       .  S
C215        C252   1.456       .  S
C215        N233   1.351       .  A
N216        N233   1.327       .  A
N216        N238   1.321       .  A
N216       Co616   2.094   1_554  S
C217        C255   1.461       .  S
C217        H262   1.081       .  S
C217        N242   1.343       .  A
H218        C259   1.082       .  S
C219        C223   1.457       .  S
C219        H248   1.082       .  S
C219        N243   1.337       .  A
Co220       N238   2.077       .  S
Co220       N228   2.080       .  S
Co220       N986   2.075       .  S
Co220       N962   2.079       .  S
Co220      Cl627   2.452   1_554  S
N221        C259   1.343       .  A
N221        N228   1.320       .  A
N221       Co585   2.085   1_554  S
Co222       N225   2.086       .  S
Co222       N584   2.085       .  S
Co222      N1331   2.088       .  S
Co222       N955   2.085       .  S
Co222      Cl264   2.450       .  S
C223        N261   1.349       .  A
N224        N231   1.320       .  A
N224        N254   1.324       .  A
N224       Co257   2.082       .  S
N225        N243   1.320       .  A
N225        N261   1.326       .  A
N226        C255   1.348       .  A
N226        N236   1.323       .  A
H227        C252   1.082       .  S
N228        N249   1.322       .  A
N229        N247   1.320       .  A
N229        N234   1.326       .  A
N229       Co948   2.085   1_545  S
C230        C258   1.457       .  S
C230        N234   1.349       .  A
N231        C246   1.343       .  A
N231       Co253   2.091       .  S
C232        C235   1.455       .  S
C232        H266   1.081       .  S
C232        N260   1.336       .  A
C235        N256   1.351       .  A
N236        N242   1.320       .  A
N236       Co946   2.079   1_545  S
N237        C263   1.344       .  A
N237        N239   1.320       .  A
N237       Co979   2.093   1_545  S
N238        C252   1.338       .  A
N239        N267   1.323       .  A
N239       Co983   2.079   1_545  S
H240        C263   1.082       .  S
H241        C258   1.082       .  S
N242      Co1311   2.088   1_544  S
N243       Co257   2.078       .  S
N244        N256   1.327       .  A
N244        N260   1.321       .  A
N244      Co1342   2.091   1_544  S
C245        C259   1.459       .  S
C245        N249   1.349       .  A
C246        C265   1.461       .  S
C246        H250   1.081       .  S
N247        C258   1.337       .  A
N247       Co983   2.078   1_545  S
C251        C263   1.462       .  S
C251        N267   1.348       .  A
Co253       N579   2.094       .  S
Co253       N963   2.093       .  S
Co253      N1333   2.091       .  S
Co253      Cl264   2.450       .  S
N254        C265   1.349       .  A
Co257       N965   2.079       .  S
Co257       N973   2.078       .  S
Co257      Cl264   2.453       .  S
N260       Co946   2.075   1_545  S
Cl264      Co583   2.452       .  S
C268        C269   1.402       .  A
C268        C273   1.403       .  A
C268        H275   1.085       .  S
C269        C270   1.411       .  A
C270        C271   1.404       .  A
C270        C277   1.506       .  S
C271        C272   1.403       .  A
C271        H276   1.084       .  S
C272        C273   1.412       .  A
C273        C274   1.507       .  S
C274        H278   1.111       .  S
C274        H279   1.110       .  S
C274        H280   1.111       .  S
C277        H281   1.111       .  S
C277        H282   1.110       .  S
C277        H283   1.111       .  S
C284        C285   1.402       .  A
C284        C289   1.402       .  A
C284        H291   1.084       .  S
C285        C286   1.415       .  A
C286        C287   1.404       .  A
C286        C293   1.508       .  S
C287        C288   1.402       .  A
C287        H292   1.084       .  S
C288        C289   1.414       .  A
C289        C290   1.508       .  S
C290        H294   1.111       .  S
C290        H295   1.110       .  S
C290        H296   1.109       .  S
C293        H297   1.109       .  S
C293        H298   1.110       .  S
C293        H299   1.111       .  S
C300        C301   1.402       .  A
C300        C305   1.404       .  A
C300        H307   1.084       .  S
C301        C302   1.414       .  A
C302        C303   1.402       .  A
C302        C309   1.508       .  S
C303        C304   1.402       .  A
C303        H308   1.085       .  S
C304        C305   1.414       .  A
C305        C306   1.507       .  S
C306        H310   1.111       .  S
C306        H311   1.109       .  S
C306        H312   1.110       .  S
C309        H313   1.110       .  S
C309        H314   1.109       .  S
C309        H315   1.111       .  S
C316        C317   1.405       .  A
C316        C321   1.403       .  A
C316        H323   1.085       .  S
C317        C318   1.416       .  A
C318        C319   1.402       .  A
C318        C325   1.509       .  S
C319        C320   1.404       .  A
C319        H324   1.085       .  S
C320        C321   1.415       .  A
C321        C322   1.509       .  S
C322        H326   1.111       .  S
C322        H327   1.108       .  S
C322        H328   1.109       .  S
C325        H329   1.110       .  S
C325        H330   1.108       .  S
C325        H331   1.111       .  S
C332        C333   1.403       .  A
C332        C337   1.402       .  A
C332        H339   1.083       .  S
C333        C334   1.416       .  A
C334        C335   1.404       .  A
C334        C341   1.509       .  S
C335        C336   1.404       .  A
C335        H340   1.083       .  S
C336        C337   1.414       .  A
C337        C338   1.506       .  S
C338        H342   1.109       .  S
C338        H343   1.107       .  S
C338        H344   1.110       .  S
C341        H345   1.110       .  S
C341        H346   1.107       .  S
C341        H347   1.111       .  S
C348        C349   1.401       .  A
C348        C353   1.403       .  A
C348        H355   1.084       .  S
C349        C350   1.410       .  A
C350        C351   1.404       .  A
C350        C357   1.504       .  S
C351        C352   1.402       .  A
C351        H356   1.084       .  S
C352        C353   1.413       .  A
C353        C354   1.507       .  S
C354        H358   1.111       .  S
C354        H359   1.110       .  S
C354        H360   1.110       .  S
C357        H361   1.110       .  S
C357        H362   1.110       .  S
C357        H363   1.110       .  S
C364        C365   1.400       .  A
C364        C369   1.398       .  A
C364        C712   1.476       .  S
C365        C366   1.404       .  A
C365        H370   1.084       .  S
C366        C367   1.405       .  A
C366        C578   1.473       .  S
C367        C368   1.405       .  A
C367        H371   1.084       .  S
C368        C369   1.403       .  A
C368        C522   1.471       .  S
C369        H372   1.084       .  S
C373        C374   1.401       .  A
C373        C378   1.397       .  A
C373        C715   1.477       .  S
C374        C375   1.406       .  A
C374        H379   1.084       .  S
C375        C376   1.406       .  A
C375        C628   1.474       .  S
C376        C377   1.404       .  A
C376        H380   1.084       .  S
C377        C378   1.401       .  A
C377        C472   1.470       .  S
C378        H381   1.084       .  S
C382        C383   1.401       .  A
C382        C387   1.403       .  A
C382        C696   1.485       .  S
C383        C384   1.400       .  A
C383        H388   1.084       .  S
C384        C385   1.403       .  A
C384        C586   1.469       .  S
C385        C386   1.405       .  A
C385        H389   1.084       .  S
C386        C387   1.405       .  A
C386        C575   1.473       .  S
C387        H390   1.082       .  S
C391        C392   1.401       .  A
C391        C396   1.402       .  A
C391        C699   1.485       .  S
C392        C393   1.402       .  A
C392        H397   1.082       .  S
C393        C394   1.403       .  A
C393        C608   1.470       .  S
C394        C395   1.404       .  A
C394        H398   1.084       .  S
C395        C396   1.403       .  A
C395        C525   1.472       .  S
C396        H399   1.084       .  S
C400        C401   1.401       .  A
C400        C405   1.401       .  A
C400        C683   1.483       .  S
C401        C402   1.402       .  A
C401        H406   1.083       .  S
C402        C403   1.404       .  A
C402        C480   1.471       .  S
C403        C404   1.404       .  A
C403        H407   1.083       .  S
C404        C405   1.403       .  A
C404        C555   1.470       .  S
C405        H408   1.084       .  S
C409        C410   1.401       .  A
C409        C414   1.402       .  A
C409        C680   1.484       .  S
C410        C411   1.401       .  A
C410        H415   1.084       .  S
C411        C412   1.403       .  A
C411        C533   1.469       .  S
C412        C413   1.405       .  A
C412        H416   1.084       .  S
C413        C414   1.404       .  A
C413        C502   1.472       .  S
C414        H417   1.083       .  S
C418        C419   1.397       .  A
C418        C423   1.401       .  A
C418        C664   1.477       .  S
C419        C420   1.401       .  A
C419        H424   1.084       .  S
C420        C421   1.404       .  A
C420        C540   1.469       .  S
C421        C422   1.405       .  A
C421        H425   1.084       .  S
C422        C423   1.406       .  A
C422        C614   1.474       .  S
C423        H426   1.084       .  S
C427        C428   1.401       .  A
C427        C432   1.398       .  A
C427        C667   1.478       .  S
C428        C429   1.405       .  A
C428        H433   1.084       .  S
C429        C430   1.406       .  A
C429        C565   1.473       .  S
C430        C431   1.404       .  A
C430        H434   1.084       .  S
C431        C432   1.402       .  A
C431        C598   1.470       .  S
C432        H435   1.084       .  S
C436        C437   1.398       .  A
C436        C441   1.402       .  A
C436        C648   1.480       .  S
C437        C438   1.402       .  A
C437        H442   1.084       .  S
C438        C439   1.404       .  A
C438        C545   1.470       .  S
C439        C440   1.406       .  A
C439        H443   1.084       .  S
C440        C441   1.406       .  A
C440        C508   1.474       .  S
C441        H444   1.084       .  S
C445        C446   1.402       .  A
C445        C450   1.397       .  A
C445        C651   1.479       .  S
C446        C447   1.406       .  A
C446        H451   1.084       .  S
C447        C448   1.405       .  A
C447        C561   1.474       .  S
C448        C449   1.404       .  A
C448        H452   1.084       .  S
C449        C450   1.401       .  A
C449        C492   1.469       .  S
C450        H453   1.084       .  S
C454        C455   1.397       .  A
C454        C459   1.401       .  A
C454        C632   1.475       .  S
C455        C456   1.401       .  A
C455        H460   1.084       .  S
C456        C457   1.404       .  A
C456        C593   1.469       .  S
C457        C458   1.405       .  A
C457        H461   1.084       .  S
C458        C459   1.406       .  A
C458        C512   1.474       .  S
C459        H462   1.084       .  S
C463        C464   1.400       .  A
C463        C468   1.397       .  A
C463        C635   1.476       .  S
C464        C465   1.405       .  A
C464        H469   1.084       .  S
C465        C466   1.405       .  A
C465        C618   1.473       .  S
C466        C467   1.404       .  A
C466        H470   1.084       .  S
C467        C468   1.402       .  A
C467        C487   1.470       .  S
C468        H471   1.084       .  S
C472        C509   1.455       .  S
C472        N490   1.351       .  A
N473        N490   1.327       .  A
N473        N495   1.320       .  A
N473       Co510   2.089       .  S
C474        C512   1.462       .  S
C474        H519   1.082       .  S
C474        N499   1.344       .  A
H475        C516   1.082       .  S
C476        C480   1.457       .  S
C476        H505   1.081       .  S
C476        N500   1.338       .  A
Co477       N495   2.072       .  S
Co477       N485   2.078       .  S
Co477       N517   2.076       .  S
Co477       N493   2.076       .  S
Co477      Cl521   2.449       .  S
N478        C516   1.343       .  A
N478        N485   1.320       .  A
N478       Co479   2.087   1_556  S
Co479       N499   2.092   1_554  S
Co479      Cl521   2.450   1_554  S
C480        N518   1.350       .  A
N481        N488   1.320       .  A
N481        N511   1.323       .  A
N481       Co514   2.080       .  S
N482        N500   1.320       .  A
N482        N518   1.326       .  A
N483        C512   1.347       .  A
N483        N493   1.323       .  A
H484        C509   1.081       .  S
N485        N506   1.323       .  A
N486        N504   1.321       .  A
N486        N491   1.326       .  A
C487        C515   1.456       .  S
C487        N491   1.350       .  A
N488        C503   1.343       .  A
C489        C492   1.456       .  S
C489        H523   1.081       .  S
C489        N517   1.337       .  A
C492        N513   1.350       .  A
N493        N499   1.320       .  A
N494        C520   1.343       .  A
N494        N496   1.320       .  A
N495        C509   1.336       .  A
N496        N524   1.323       .  A
N496       Co514   2.081       .  S
H497        C520   1.081       .  S
H498        C515   1.081       .  S
N500       Co514   2.078       .  S
N501        N513   1.326       .  A
N501        N517   1.320       .  A
N501       Co510   2.086       .  S
C502        C516   1.460       .  S
C502        N506   1.348       .  A
C503        C522   1.459       .  S
C503        H507   1.081       .  S
N504        C515   1.337       .  A
N504       Co514   2.077       .  S
C508        C520   1.461       .  S
C508        N524   1.349       .  A
Co510      Cl521   2.450       .  S
N511        C522   1.349       .  A
C525        C562   1.458       .  S
C525        N543   1.350       .  A
N526       N1995   1.326       .  A
N526        N548   1.320       .  A
C527        C565   1.460       .  S
C527        H572   1.081       .  S
C527        N552   1.343       .  A
H528        C569   1.082       .  S
C529        C533   1.456       .  S
C529        H558   1.081       .  S
C529       N2005   1.337       .  A
Co530       N548   2.080       .  S
Co530       N538   2.078       .  S
Co530       N570   2.075       .  S
Co530       N546   2.081       .  S
N531       C2021   1.343       .  A
N531        N538   1.320       .  A
Co532       N535   2.087       .  S
Co532       N539   2.086       .  S
Co532      Cl574   2.449       .  S
C533        N571   1.350       .  A
N534        N541   1.320       .  A
N534       N2016   1.323       .  A
N534       Co567   2.080       .  S
N535        N553   1.320       .  A
N535       N2023   1.326       .  A
N536        C565   1.349       .  A
N536        N546   1.323       .  A
H537        C562   1.081       .  S
N538       N2011   1.322       .  A
N539        N557   1.320       .  A
N539        N544   1.326       .  A
C540        C568   1.457       .  S
C540        N544   1.349       .  A
N541       C2008   1.342       .  A
N541       Co563   2.088   1_556  S
C542        C545   1.455       .  S
C542        H576   1.081       .  S
C542        N570   1.336       .  A
N543       N1978   1.326       .  A
C545        N566   1.351       .  A
N546        N552   1.320       .  A
N547        C573   1.343       .  A
N547        N549   1.320       .  A
N547       Co563   2.090   1_556  S
N548       C2014   1.339       .  A
N549        N577   1.323       .  A
N549       Co567   2.080       .  S
H550        C573   1.082       .  S
H551        C568   1.081       .  S
N553       C1981   1.337       .  A
N553       Co567   2.077       .  S
N554        N566   1.327       .  A
N554        N570   1.320       .  A
C555        C569   1.460       .  S
C555        N559   1.348       .  A
C556        C575   1.460       .  S
C556        H560   1.081       .  S
C556       N1993   1.342       .  A
N557        C568   1.337       .  A
N557       Co567   2.077       .  S
N559       N1990   1.322       .  A
C561        C573   1.461       .  S
C561        N577   1.348       .  A
C562       N2000   1.339       .  A
Co563      Cl574   2.449   1_554  S
N564        C575   1.349       .  A
N564       N1986   1.323       .  A
Co567      Cl574   2.452       .  S
C569       N1983   1.343       .  A
N571       N1987   1.326       .  A
C578        C615   1.456       .  S
C578        N596   1.351       .  A
N579        N596   1.327       .  A
N579        N601   1.321       .  A
C580        C618   1.461       .  S
C580        H625   1.081       .  S
C580        N605   1.343       .  A
H581        C622   1.082       .  S
C582        C586   1.457       .  S
C582        H611   1.082       .  S
C582        N606   1.337       .  A
Co583       N601   2.077       .  S
Co583       N591   2.080       .  S
Co583      N1349   2.075       .  S
Co583      N1325   2.079       .  S
N584        C622   1.343       .  A
N584        N591   1.320       .  A
Co585       N588   2.086       .  S
Co585       N968   2.088   1_556  S
Co585      N1318   2.085       .  S
Co585      Cl627   2.450       .  S
C586        N624   1.349       .  A
N587        N594   1.320       .  A
N587        N617   1.324       .  A
N587       Co620   2.082       .  S
N588        N606   1.320       .  A
N588        N624   1.326       .  A
N589        C618   1.348       .  A
N589        N599   1.323       .  A
H590        C615   1.082       .  S
N591        N612   1.322       .  A
N592        N610   1.320       .  A
N592        N597   1.326       .  A
N592      Co1311   2.085   1_545  S
C593        C621   1.457       .  S
C593        N597   1.349       .  A
N594        C609   1.343       .  A
N594       Co616   2.091       .  S
C595        C598   1.455       .  S
C595        H629   1.081       .  S
C595        N623   1.336       .  A
C598        N619   1.351       .  A
N599        N605   1.320       .  A
N599      Co1309   2.079   1_545  S
N600        C626   1.344       .  A
N600        N602   1.320       .  A
N600      Co1342   2.093   1_545  S
N601        C615   1.338       .  A
N602        N630   1.323       .  A
N602      Co1346   2.079   1_545  S
H603        C626   1.082       .  S
H604        C621   1.082       .  S
N605       Co948   2.088   1_545  S
N606       Co620   2.078       .  S
N607        N619   1.327       .  A
N607        N623   1.321       .  A
N607       Co979   2.091   1_545  S
C608        C622   1.459       .  S
C608        N612   1.349       .  A
C609        C628   1.461       .  S
C609        H613   1.081       .  S
N610        C621   1.337       .  A
N610      Co1346   2.078   1_545  S
C614        C626   1.462       .  S
C614        N630   1.348       .  A
Co616      N1326   2.093       .  S
Co616       N970   2.091   1_556  S
Co616      Cl627   2.450       .  S
N617        C628   1.349       .  A
Co620      N1328   2.079       .  S
Co620      N1336   2.078       .  S
Co620      Cl627   2.453       .  S
N623      Co1309   2.075   1_545  S
C631        C632   1.402       .  A
C631        C636   1.403       .  A
C631        H638   1.085       .  S
C632        C633   1.411       .  A
C633        C634   1.404       .  A
C633        C640   1.506       .  S
C634        C635   1.403       .  A
C634        H639   1.084       .  S
C635        C636   1.412       .  A
C636        C637   1.507       .  S
C637        H641   1.111       .  S
C637        H642   1.110       .  S
C637        H643   1.111       .  S
C640        H644   1.111       .  S
C640        H645   1.110       .  S
C640        H646   1.111       .  S
C647        C648   1.402       .  A
C647        C652   1.402       .  A
C647        H654   1.084       .  S
C648        C649   1.415       .  A
C649        C650   1.404       .  A
C649        C656   1.508       .  S
C650        C651   1.402       .  A
C650        H655   1.084       .  S
C651        C652   1.414       .  A
C652        C653   1.508       .  S
C653        H657   1.111       .  S
C653        H658   1.110       .  S
C653        H659   1.109       .  S
C656        H660   1.109       .  S
C656        H661   1.110       .  S
C656        H662   1.111       .  S
C663        C664   1.402       .  A
C663        C668   1.404       .  A
C663        H670   1.084       .  S
C664        C665   1.414       .  A
C665        C666   1.402       .  A
C665        C672   1.508       .  S
C666        C667   1.402       .  A
C666        H671   1.085       .  S
C667        C668   1.414       .  A
C668        C669   1.507       .  S
C669        H673   1.111       .  S
C669        H674   1.109       .  S
C669        H675   1.110       .  S
C672        H676   1.110       .  S
C672        H677   1.109       .  S
C672        H678   1.111       .  S
C679        C680   1.405       .  A
C679        C684   1.403       .  A
C679        H686   1.085       .  S
C680        C681   1.416       .  A
C681        C682   1.402       .  A
C681        C688   1.509       .  S
C682        C683   1.404       .  A
C682        H687   1.085       .  S
C683        C684   1.415       .  A
C684        C685   1.509       .  S
C685        H689   1.111       .  S
C685        H690   1.108       .  S
C685        H691   1.109       .  S
C688        H692   1.110       .  S
C688        H693   1.108       .  S
C688        H694   1.111       .  S
C695        C696   1.403       .  A
C695        C700   1.402       .  A
C695        H702   1.083       .  S
C696        C697   1.416       .  A
C697        C698   1.404       .  A
C697        C704   1.509       .  S
C698        C699   1.404       .  A
C698        H703   1.083       .  S
C699        C700   1.414       .  A
C700        C701   1.506       .  S
C701        H705   1.109       .  S
C701        H706   1.107       .  S
C701        H707   1.110       .  S
C704        H708   1.110       .  S
C704        H709   1.107       .  S
C704        H710   1.111       .  S
C711        C712   1.401       .  A
C711        C716   1.403       .  A
C711        H718   1.084       .  S
C712        C713   1.410       .  A
C713        C714   1.404       .  A
C713        C720   1.504       .  S
C714        C715   1.402       .  A
C714        H719   1.084       .  S
C715        C716   1.413       .  A
C716        C717   1.507       .  S
C717        H721   1.111       .  S
C717        H722   1.110       .  S
C717        H723   1.110       .  S
C720        H724   1.110       .  S
C720        H725   1.110       .  S
C720        H726   1.110       .  S
C727        C728   1.400       .  A
C727        C732   1.398       .  A
C727       C1075   1.476       .  S
C728        C729   1.404       .  A
C728        H733   1.084       .  S
C729        C730   1.405       .  A
C729        C941   1.473       .  S
C730        C731   1.405       .  A
C730        H734   1.084       .  S
C731        C732   1.403       .  A
C731        C885   1.471       .  S
C732        H735   1.084       .  S
C736        C737   1.401       .  A
C736        C741   1.397       .  A
C736       C1078   1.477       .  S
C737        C738   1.406       .  A
C737        H742   1.084       .  S
C738        C739   1.406       .  A
C738        C991   1.474       .  S
C739        C740   1.404       .  A
C739        H743   1.084       .  S
C740        C741   1.401       .  A
C740        C835   1.470       .  S
C741        H744   1.084       .  S
C745        C746   1.401       .  A
C745        C750   1.403       .  A
C745       C1059   1.485       .  S
C746        C747   1.400       .  A
C746        H751   1.084       .  S
C747        C748   1.403       .  A
C747        C949   1.469       .  S
C748        C749   1.405       .  A
C748        H752   1.084       .  S
C749        C750   1.405       .  A
C749        C938   1.473       .  S
C750        H753   1.082       .  S
C754        C755   1.401       .  A
C754        C759   1.402       .  A
C754       C1062   1.485       .  S
C755        C756   1.402       .  A
C755        H760   1.082       .  S
C756        C757   1.403       .  A
C756        C971   1.470       .  S
C757        C758   1.404       .  A
C757        H761   1.084       .  S
C758        C759   1.403       .  A
C758        C888   1.472       .  S
C759        H762   1.084       .  S
C763        C764   1.401       .  A
C763        C768   1.401       .  A
C763       C1046   1.483       .  S
C764        C765   1.402       .  A
C764        H769   1.083       .  S
C765        C766   1.404       .  A
C765        C843   1.471       .  S
C766        C767   1.404       .  A
C766        H770   1.083       .  S
C767        C768   1.403       .  A
C767        C918   1.470       .  S
C768        H771   1.084       .  S
C772        C773   1.401       .  A
C772        C777   1.402       .  A
C772       C1043   1.484       .  S
C773        C774   1.401       .  A
C773        H778   1.084       .  S
C774        C775   1.403       .  A
C774        C896   1.469       .  S
C775        C776   1.405       .  A
C775        H779   1.084       .  S
C776        C777   1.404       .  A
C776        C865   1.472       .  S
C777        H780   1.083       .  S
C781        C782   1.397       .  A
C781        C786   1.401       .  A
C781       C1027   1.477       .  S
C782        C783   1.401       .  A
C782        H787   1.084       .  S
C783        C784   1.404       .  A
C783        C903   1.469       .  S
C784        C785   1.405       .  A
C784        H788   1.084       .  S
C785        C786   1.406       .  A
C785        C977   1.474       .  S
C786        H789   1.084       .  S
C790        C791   1.401       .  A
C790        C795   1.398       .  A
C790       C1030   1.478       .  S
C791        C792   1.405       .  A
C791        H796   1.084       .  S
C792        C793   1.406       .  A
C792        C928   1.473       .  S
C793        C794   1.404       .  A
C793        H797   1.084       .  S
C794        C795   1.402       .  A
C794        C961   1.470       .  S
C795        H798   1.084       .  S
C799        C800   1.398       .  A
C799        C804   1.402       .  A
C799       C1011   1.480       .  S
C800        C801   1.402       .  A
C800        H805   1.084       .  S
C801        C802   1.404       .  A
C801        C908   1.470       .  S
C802        C803   1.406       .  A
C802        H806   1.084       .  S
C803        C804   1.406       .  A
C803        C871   1.474       .  S
C804        H807   1.084       .  S
C808        C809   1.402       .  A
C808        C813   1.397       .  A
C808       C1014   1.479       .  S
C809        C810   1.406       .  A
C809        H814   1.084       .  S
C810        C811   1.405       .  A
C810        C924   1.474       .  S
C811        C812   1.404       .  A
C811        H815   1.084       .  S
C812        C813   1.401       .  A
C812        C855   1.469       .  S
C813        H816   1.084       .  S
C817        C818   1.397       .  A
C817        C822   1.401       .  A
C817        C995   1.475       .  S
C818        C819   1.401       .  A
C818        H823   1.084       .  S
C819        C820   1.404       .  A
C819        C956   1.469       .  S
C820        C821   1.405       .  A
C820        H824   1.084       .  S
C821        C822   1.406       .  A
C821        C875   1.474       .  S
C822        H825   1.084       .  S
C826        C827   1.400       .  A
C826        C831   1.397       .  A
C826        C998   1.476       .  S
C827        C828   1.405       .  A
C827        H832   1.084       .  S
C828        C829   1.405       .  A
C828        C981   1.473       .  S
C829        C830   1.404       .  A
C829        H833   1.084       .  S
C830        C831   1.402       .  A
C830        C850   1.470       .  S
C831        H834   1.084       .  S
C835        C872   1.455       .  S
C835        N853   1.351       .  A
N836        N853   1.327       .  A
N836        N858   1.320       .  A
N836       Co873   2.089       .  S
C837        C875   1.462       .  S
C837        H882   1.082       .  S
C837        N862   1.344       .  A
H838        C879   1.082       .  S
C839        C843   1.457       .  S
C839        H868   1.081       .  S
C839        N863   1.338       .  A
Co840       N858   2.072       .  S
Co840       N848   2.078       .  S
Co840       N880   2.076       .  S
Co840       N856   2.076       .  S
Co840      Cl884   2.449       .  S
N841        C879   1.343       .  A
N841        N848   1.320       .  A
N841       Co842   2.087       .  S
Co842      N1208   2.089       .  S
Co842       N862   2.092       .  S
Co842      N1212   2.088       .  S
Co842      Cl884   2.450       .  S
C843        N881   1.350       .  A
N844        N851   1.320       .  A
N844        N874   1.323       .  A
N844       Co877   2.080       .  S
N845        N863   1.320       .  A
N845        N881   1.326       .  A
N845      Co1205   2.089       .  S
N846        C875   1.347       .  A
N846        N856   1.323       .  A
H847        C872   1.081       .  S
N848        N869   1.323       .  A
N849        N867   1.321       .  A
N849        N854   1.326       .  A
N849      Co1205   2.088       .  S
C850        C878   1.456       .  S
C850        N854   1.350       .  A
N851        C866   1.343       .  A
N851      Co1236   2.085   1_554  S
C852        C855   1.456       .  S
C852        H886   1.081       .  S
C852        N880   1.337       .  A
C855        N876   1.350       .  A
N856        N862   1.320       .  A
N857        C883   1.343       .  A
N857        N859   1.320       .  A
N857      Co1236   2.089   1_554  S
N858        C872   1.336       .  A
N859        N887   1.323       .  A
N859       Co877   2.081       .  S
H860        C883   1.081       .  S
H861        C878   1.081       .  S
N863       Co877   2.078       .  S
N864        N876   1.326       .  A
N864        N880   1.320       .  A
N864       Co873   2.086       .  S
C865        C879   1.460       .  S
C865        N869   1.348       .  A
C866        C885   1.459       .  S
C866        H870   1.081       .  S
N867        C878   1.337       .  A
N867       Co877   2.077       .  S
C871        C883   1.461       .  S
C871        N887   1.349       .  A
Co873      N1214   2.085       .  S
Co873      N1220   2.089       .  S
Co873      Cl884   2.450       .  S
N874        C885   1.349       .  A
Co877     Cl1247   2.451   1_554  S
Cl884     Co1240   2.451       .  S
C888        C925   1.458       .  S
C888        N906   1.350       .  A
N889       N2358   1.326       .  A
N889        N911   1.320       .  A
N889      Co1289   2.089       .  S
C890        C928   1.460       .  S
C890        H935   1.081       .  S
C890        N915   1.343       .  A
H891        C932   1.082       .  S
C892        C896   1.456       .  S
C892        H921   1.081       .  S
C892       N2368   1.337       .  A
Co893       N911   2.080       .  S
Co893       N901   2.078       .  S
Co893       N933   2.075       .  S
Co893       N909   2.081       .  S
Co893     Cl1300   2.451   1_554  S
N894       C2384   1.343       .  A
N894        N901   1.320       .  A
N894      Co1258   2.086   1_554  S
Co895      N1257   2.086       .  S
Co895       N898   2.087       .  S
Co895      N1278   2.087       .  S
Co895       N902   2.086       .  S
Co895      Cl937   2.449       .  S
C896        N934   1.350       .  A
N897        N904   1.320       .  A
N897       N2379   1.323       .  A
N897       Co930   2.080       .  S
N898        N916   1.320       .  A
N898       N2386   1.326       .  A
N899        C928   1.349       .  A
N899        N909   1.323       .  A
H900        C925   1.081       .  S
N901       N2374   1.322       .  A
N902        N920   1.320       .  A
N902        N907   1.326       .  A
C903        C931   1.457       .  S
C903        N907   1.349       .  A
N904       C2371   1.342       .  A
N904       Co926   2.088       .  S
C905        C908   1.455       .  S
C905        H939   1.081       .  S
C905        N933   1.336       .  A
N906       N2341   1.326       .  A
C908        N929   1.351       .  A
N909        N915   1.320       .  A
N910        C936   1.343       .  A
N910        N912   1.320       .  A
N910       Co926   2.090       .  S
N911       C2377   1.339       .  A
N912        N940   1.323       .  A
N912       Co930   2.080       .  S
H913        C936   1.082       .  S
H914        C931   1.081       .  S
N915      Co1258   2.087   1_554  S
N916       C2344   1.337       .  A
N916       Co930   2.077       .  S
N917        N929   1.327       .  A
N917        N933   1.320       .  A
N917      Co1289   2.091       .  S
C918        C932   1.460       .  S
C918        N922   1.348       .  A
C919        C938   1.460       .  S
C919        H923   1.081       .  S
C919       N2356   1.342       .  A
N920        C931   1.337       .  A
N920       Co930   2.077       .  S
N922       N2353   1.322       .  A
C924        C936   1.461       .  S
C924        N940   1.348       .  A
C925       N2363   1.339       .  A
Co926      N1252   2.089       .  S
Co926      N1280   2.091       .  S
Co926      Cl937   2.449       .  S
N927        C938   1.349       .  A
N927       N2349   1.323       .  A
Co930      Cl937   2.452       .  S
C932       N2346   1.343       .  A
N934       N2350   1.326       .  A
Cl937     Co1256   2.451       .  S
C941        C978   1.456       .  S
C941        N959   1.351       .  A
N942        N959   1.327       .  A
N942        N964   1.321       .  A
N942      Co1342   2.094   1_554  S
C943        C981   1.461       .  S
C943        H988   1.081       .  S
C943        N968   1.343       .  A
H944        C985   1.082       .  S
C945        C949   1.457       .  S
C945        H974   1.082       .  S
C945        N969   1.337       .  A
Co946       N964   2.077       .  S
Co946       N954   2.080       .  S
Co946     Cl1353   2.452   1_554  S
N947        C985   1.343       .  A
N947        N954   1.320       .  A
N947      Co1311   2.085   1_554  S
Co948      N1310   2.085       .  S
Co948       N951   2.086       .  S
Co948      Cl990   2.450       .  S
C949        N987   1.349       .  A
N950        N957   1.320       .  A
N950        N980   1.324       .  A
N950       Co983   2.082       .  S
N951        N969   1.320       .  A
N951        N987   1.326       .  A
N952        C981   1.348       .  A
N952        N962   1.323       .  A
H953        C978   1.082       .  S
N954        N975   1.322       .  A
N955        N973   1.320       .  A
N955        N960   1.326       .  A
C956        C984   1.457       .  S
C956        N960   1.349       .  A
N957        C972   1.343       .  A
N957       Co979   2.091       .  S
C958        C961   1.455       .  S
C958        H992   1.081       .  S
C958        N986   1.336       .  A
C961        N982   1.351       .  A
N962        N968   1.320       .  A
N963        C989   1.344       .  A
N963        N965   1.320       .  A
N964        C978   1.338       .  A
N965        N993   1.323       .  A
H966        C989   1.082       .  S
H967        C984   1.082       .  S
N969       Co983   2.078       .  S
N970        N982   1.327       .  A
N970        N986   1.321       .  A
C971        C985   1.459       .  S
C971        N975   1.349       .  A
C972        C991   1.461       .  S
C972        H976   1.081       .  S
N973        C984   1.337       .  A
C977        C989   1.462       .  S
C977        N993   1.348       .  A
Co979      N1305   2.094       .  S
Co979      Cl990   2.450       .  S
N980        C991   1.349       .  A
Co983      Cl990   2.453       .  S
Cl990     Co1309   2.452       .  S
C994        C995   1.402       .  A
C994        C999   1.403       .  A
C994       H1001   1.085       .  S
C995        C996   1.411       .  A
C996        C997   1.404       .  A
C996       C1003   1.506       .  S
C997        C998   1.403       .  A
C997       H1002   1.084       .  S
C998        C999   1.412       .  A
C999       C1000   1.507       .  S
C1000      H1004   1.111       .  S
C1000      H1005   1.110       .  S
C1000      H1006   1.111       .  S
C1003      H1007   1.111       .  S
C1003      H1008   1.110       .  S
C1003      H1009   1.111       .  S
C1010      C1011   1.402       .  A
C1010      C1015   1.402       .  A
C1010      H1017   1.084       .  S
C1011      C1012   1.415       .  A
C1012      C1013   1.404       .  A
C1012      C1019   1.508       .  S
C1013      C1014   1.402       .  A
C1013      H1018   1.084       .  S
C1014      C1015   1.414       .  A
C1015      C1016   1.508       .  S
C1016      H1020   1.111       .  S
C1016      H1021   1.110       .  S
C1016      H1022   1.109       .  S
C1019      H1023   1.109       .  S
C1019      H1024   1.110       .  S
C1019      H1025   1.111       .  S
C1026      C1027   1.402       .  A
C1026      C1031   1.404       .  A
C1026      H1033   1.084       .  S
C1027      C1028   1.414       .  A
C1028      C1029   1.402       .  A
C1028      C1035   1.508       .  S
C1029      C1030   1.402       .  A
C1029      H1034   1.085       .  S
C1030      C1031   1.414       .  A
C1031      C1032   1.507       .  S
C1032      H1036   1.111       .  S
C1032      H1037   1.109       .  S
C1032      H1038   1.110       .  S
C1035      H1039   1.110       .  S
C1035      H1040   1.109       .  S
C1035      H1041   1.111       .  S
C1042      C1043   1.405       .  A
C1042      C1047   1.403       .  A
C1042      H1049   1.085       .  S
C1043      C1044   1.416       .  A
C1044      C1045   1.402       .  A
C1044      C1051   1.509       .  S
C1045      C1046   1.404       .  A
C1045      H1050   1.085       .  S
C1046      C1047   1.415       .  A
C1047      C1048   1.509       .  S
C1048      H1052   1.111       .  S
C1048      H1053   1.108       .  S
C1048      H1054   1.109       .  S
C1051      H1055   1.110       .  S
C1051      H1056   1.108       .  S
C1051      H1057   1.111       .  S
C1058      C1059   1.403       .  A
C1058      C1063   1.402       .  A
C1058      H1065   1.083       .  S
C1059      C1060   1.416       .  A
C1060      C1061   1.404       .  A
C1060      C1067   1.509       .  S
C1061      C1062   1.404       .  A
C1061      H1066   1.083       .  S
C1062      C1063   1.414       .  A
C1063      C1064   1.506       .  S
C1064      H1068   1.109       .  S
C1064      H1069   1.107       .  S
C1064      H1070   1.110       .  S
C1067      H1071   1.110       .  S
C1067      H1072   1.107       .  S
C1067      H1073   1.111       .  S
C1074      C1075   1.401       .  A
C1074      C1079   1.403       .  A
C1074      H1081   1.084       .  S
C1075      C1076   1.410       .  A
C1076      C1077   1.404       .  A
C1076      C1083   1.504       .  S
C1077      C1078   1.402       .  A
C1077      H1082   1.084       .  S
C1078      C1079   1.413       .  A
C1079      C1080   1.507       .  S
C1080      H1084   1.111       .  S
C1080      H1085   1.110       .  S
C1080      H1086   1.110       .  S
C1083      H1087   1.110       .  S
C1083      H1088   1.110       .  S
C1083      H1089   1.110       .  S
C1090      C1091   1.400       .  A
C1090      C1095   1.398       .  A
C1090      C1438   1.476       .  S
C1091      C1092   1.404       .  A
C1091      H1096   1.084       .  S
C1092      C1093   1.405       .  A
C1092      C1304   1.473       .  S
C1093      C1094   1.405       .  A
C1093      H1097   1.084       .  S
C1094      C1095   1.403       .  A
C1094      C1248   1.471       .  S
C1095      H1098   1.084       .  S
C1099      C1100   1.401       .  A
C1099      C1104   1.397       .  A
C1099      C1441   1.477       .  S
C1100      C1101   1.406       .  A
C1100      H1105   1.084       .  S
C1101      C1102   1.406       .  A
C1101      C1354   1.474       .  S
C1102      C1103   1.404       .  A
C1102      H1106   1.084       .  S
C1103      C1104   1.401       .  A
C1103      C1198   1.470       .  S
C1104      H1107   1.084       .  S
C1108      C1109   1.401       .  A
C1108      C1113   1.403       .  A
C1108      C1422   1.485       .  S
C1109      C1110   1.400       .  A
C1109      H1114   1.084       .  S
C1110      C1111   1.403       .  A
C1110      C1312   1.469       .  S
C1111      C1112   1.405       .  A
C1111      H1115   1.084       .  S
C1112      C1113   1.405       .  A
C1112      C1301   1.473       .  S
C1113      H1116   1.082       .  S
C1117      C1118   1.401       .  A
C1117      C1122   1.402       .  A
C1117      C1425   1.485       .  S
C1118      C1119   1.402       .  A
C1118      H1123   1.082       .  S
C1119      C1120   1.403       .  A
C1119      C1334   1.470       .  S
C1120      C1121   1.404       .  A
C1120      H1124   1.084       .  S
C1121      C1122   1.403       .  A
C1121      C1251   1.472       .  S
C1122      H1125   1.084       .  S
C1126      C1127   1.401       .  A
C1126      C1131   1.401       .  A
C1126      C1409   1.483       .  S
C1127      C1128   1.402       .  A
C1127      H1132   1.083       .  S
C1128      C1129   1.404       .  A
C1128      C1206   1.471       .  S
C1129      C1130   1.404       .  A
C1129      H1133   1.083       .  S
C1130      C1131   1.403       .  A
C1130      C1281   1.470       .  S
C1131      H1134   1.084       .  S
C1135      C1136   1.401       .  A
C1135      C1140   1.402       .  A
C1135      C1406   1.484       .  S
C1136      C1137   1.401       .  A
C1136      H1141   1.084       .  S
C1137      C1138   1.403       .  A
C1137      C1259   1.469       .  S
C1138      C1139   1.405       .  A
C1138      H1142   1.084       .  S
C1139      C1140   1.404       .  A
C1139      C1228   1.472       .  S
C1140      H1143   1.083       .  S
C1144      C1145   1.397       .  A
C1144      C1149   1.401       .  A
C1144      C1390   1.477       .  S
C1145      C1146   1.401       .  A
C1145      H1150   1.084       .  S
C1146      C1147   1.404       .  A
C1146      C1266   1.469       .  S
C1147      C1148   1.405       .  A
C1147      H1151   1.084       .  S
C1148      C1149   1.406       .  A
C1148      C1340   1.474       .  S
C1149      H1152   1.084       .  S
C1153      C1154   1.401       .  A
C1153      C1158   1.398       .  A
C1153      C1393   1.478       .  S
C1154      C1155   1.405       .  A
C1154      H1159   1.084       .  S
C1155      C1156   1.406       .  A
C1155      C1291   1.473       .  S
C1156      C1157   1.404       .  A
C1156      H1160   1.084       .  S
C1157      C1158   1.402       .  A
C1157      C1324   1.470       .  S
C1158      H1161   1.084       .  S
C1162      C1163   1.398       .  A
C1162      C1167   1.402       .  A
C1162      C1374   1.480       .  S
C1163      C1164   1.402       .  A
C1163      H1168   1.084       .  S
C1164      C1165   1.404       .  A
C1164      C1271   1.470       .  S
C1165      C1166   1.406       .  A
C1165      H1169   1.084       .  S
C1166      C1167   1.406       .  A
C1166      C1234   1.474       .  S
C1167      H1170   1.084       .  S
C1171      C1172   1.402       .  A
C1171      C1176   1.397       .  A
C1171      C1377   1.479       .  S
C1172      C1173   1.406       .  A
C1172      H1177   1.084       .  S
C1173      C1174   1.405       .  A
C1173      C1287   1.474       .  S
C1174      C1175   1.404       .  A
C1174      H1178   1.084       .  S
C1175      C1176   1.401       .  A
C1175      C1218   1.469       .  S
C1176      H1179   1.084       .  S
C1180      C1181   1.397       .  A
C1180      C1185   1.401       .  A
C1180      C1358   1.475       .  S
C1181      C1182   1.401       .  A
C1181      H1186   1.084       .  S
C1182      C1183   1.404       .  A
C1182      C1319   1.469       .  S
C1183      C1184   1.405       .  A
C1183      H1187   1.084       .  S
C1184      C1185   1.406       .  A
C1184      C1238   1.474       .  S
C1185      H1188   1.084       .  S
C1189      C1190   1.400       .  A
C1189      C1194   1.397       .  A
C1189      C1361   1.476       .  S
C1190      C1191   1.405       .  A
C1190      H1195   1.084       .  S
C1191      C1192   1.405       .  A
C1191      C1344   1.473       .  S
C1192      C1193   1.404       .  A
C1192      H1196   1.084       .  S
C1193      C1194   1.402       .  A
C1193      C1213   1.470       .  S
C1194      H1197   1.084       .  S
C1198      C1235   1.455       .  S
C1198      N1216   1.351       .  A
N1199      N1216   1.327       .  A
N1199      N1221   1.320       .  A
N1199     Co1236   2.089       .  S
C1200      C1238   1.462       .  S
C1200      H1245   1.082       .  S
C1200      N1225   1.344       .  A
H1201      C1242   1.082       .  S
C1202      C1206   1.457       .  S
C1202      H1231   1.081       .  S
C1202      N1226   1.338       .  A
Co1203     N1221   2.072       .  S
Co1203     N1211   2.078       .  S
Co1203     N1243   2.076       .  S
Co1203     N1219   2.076       .  S
Co1203    Cl1247   2.449       .  S
N1204      C1242   1.343       .  A
N1204      N1211   1.320       .  A
N1204     Co1205   2.087   1_556  S
Co1205     N1225   2.092   1_554  S
Co1205    Cl1247   2.450   1_554  S
C1206      N1244   1.350       .  A
N1207      N1214   1.320       .  A
N1207      N1237   1.323       .  A
N1207     Co1240   2.080       .  S
N1208      N1226   1.320       .  A
N1208      N1244   1.326       .  A
N1209      C1238   1.347       .  A
N1209      N1219   1.323       .  A
H1210      C1235   1.081       .  S
N1211      N1232   1.323       .  A
N1212      N1230   1.321       .  A
N1212      N1217   1.326       .  A
C1213      C1241   1.456       .  S
C1213      N1217   1.350       .  A
N1214      C1229   1.343       .  A
C1215      C1218   1.456       .  S
C1215      H1249   1.081       .  S
C1215      N1243   1.337       .  A
C1218      N1239   1.350       .  A
N1219      N1225   1.320       .  A
N1220      C1246   1.343       .  A
N1220      N1222   1.320       .  A
N1221      C1235   1.336       .  A
N1222      N1250   1.323       .  A
N1222     Co1240   2.081       .  S
H1223      C1246   1.081       .  S
H1224      C1241   1.081       .  S
N1226     Co1240   2.078       .  S
N1227      N1239   1.326       .  A
N1227      N1243   1.320       .  A
N1227     Co1236   2.086       .  S
C1228      C1242   1.460       .  S
C1228      N1232   1.348       .  A
C1229      C1248   1.459       .  S
C1229      H1233   1.081       .  S
N1230      C1241   1.337       .  A
N1230     Co1240   2.077       .  S
C1234      C1246   1.461       .  S
C1234      N1250   1.349       .  A
Co1236    Cl1247   2.450       .  S
N1237      C1248   1.349       .  A
C1251      C1288   1.458       .  S
C1251      N1269   1.350       .  A
N1252      N2721   1.326       .  A
N1252      N1274   1.320       .  A
C1253      C1291   1.460       .  S
C1253      H1298   1.081       .  S
C1253      N1278   1.343       .  A
H1254      C1295   1.082       .  S
C1255      C1259   1.456       .  S
C1255      H1284   1.081       .  S
C1255      N2731   1.337       .  A
Co1256     N1274   2.080       .  S
Co1256     N1264   2.078       .  S
Co1256     N1296   2.075       .  S
Co1256     N1272   2.081       .  S
N1257      C2747   1.343       .  A
N1257      N1264   1.320       .  A
Co1258     N1261   2.087       .  S
Co1258     N1265   2.086       .  S
Co1258    Cl1300   2.449       .  S
C1259      N1297   1.350       .  A
N1260      N1267   1.320       .  A
N1260      N2742   1.323       .  A
N1260     Co1293   2.080       .  S
N1261      N1279   1.320       .  A
N1261      N2749   1.326       .  A
N1262      C1291   1.349       .  A
N1262      N1272   1.323       .  A
H1263      C1288   1.081       .  S
N1264      N2737   1.322       .  A
N1265      N1283   1.320       .  A
N1265      N1270   1.326       .  A
C1266      C1294   1.457       .  S
C1266      N1270   1.349       .  A
N1267      C2734   1.342       .  A
N1267     Co1289   2.088   1_556  S
C1268      C1271   1.455       .  S
C1268      H1302   1.081       .  S
C1268      N1296   1.336       .  A
N1269      N2704   1.326       .  A
C1271      N1292   1.351       .  A
N1272      N1278   1.320       .  A
N1273      C1299   1.343       .  A
N1273      N1275   1.320       .  A
N1273     Co1289   2.090   1_556  S
N1274      C2740   1.339       .  A
N1275      N1303   1.323       .  A
N1275     Co1293   2.080       .  S
H1276      C1299   1.082       .  S
H1277      C1294   1.081       .  S
N1279      C2707   1.337       .  A
N1279     Co1293   2.077       .  S
N1280      N1292   1.327       .  A
N1280      N1296   1.320       .  A
C1281      C1295   1.460       .  S
C1281      N1285   1.348       .  A
C1282      C1301   1.460       .  S
C1282      H1286   1.081       .  S
C1282      N2719   1.342       .  A
N1283      C1294   1.337       .  A
N1283     Co1293   2.077       .  S
N1285      N2716   1.322       .  A
C1287      C1299   1.461       .  S
C1287      N1303   1.348       .  A
C1288      N2726   1.339       .  A
Co1289    Cl1300   2.449   1_554  S
N1290      C1301   1.349       .  A
N1290      N2712   1.323       .  A
Co1293    Cl1300   2.452       .  S
C1295      N2709   1.343       .  A
N1297      N2713   1.326       .  A
C1304      C1341   1.456       .  S
C1304      N1322   1.351       .  A
N1305      N1322   1.327       .  A
N1305      N1327   1.321       .  A
C1306      C1344   1.461       .  S
C1306      H1351   1.081       .  S
C1306      N1331   1.343       .  A
H1307      C1348   1.082       .  S
C1308      C1312   1.457       .  S
C1308      H1337   1.082       .  S
C1308      N1332   1.337       .  A
Co1309     N1327   2.077       .  S
Co1309     N1317   2.080       .  S
N1310      C1348   1.343       .  A
N1310      N1317   1.320       .  A
Co1311     N1314   2.086       .  S
Co1311    Cl1353   2.450       .  S
C1312      N1350   1.349       .  A
N1313      N1320   1.320       .  A
N1313      N1343   1.324       .  A
N1313     Co1346   2.082       .  S
N1314      N1332   1.320       .  A
N1314      N1350   1.326       .  A
N1315      C1344   1.348       .  A
N1315      N1325   1.323       .  A
H1316      C1341   1.082       .  S
N1317      N1338   1.322       .  A
N1318      N1336   1.320       .  A
N1318      N1323   1.326       .  A
C1319      C1347   1.457       .  S
C1319      N1323   1.349       .  A
N1320      C1335   1.343       .  A
N1320     Co1342   2.091       .  S
C1321      C1324   1.455       .  S
C1321      H1355   1.081       .  S
C1321      N1349   1.336       .  A
C1324      N1345   1.351       .  A
N1325      N1331   1.320       .  A
N1326      C1352   1.344       .  A
N1326      N1328   1.320       .  A
N1327      C1341   1.338       .  A
N1328      N1356   1.323       .  A
H1329      C1352   1.082       .  S
H1330      C1347   1.082       .  S
N1332     Co1346   2.078       .  S
N1333      N1345   1.327       .  A
N1333      N1349   1.321       .  A
C1334      C1348   1.459       .  S
C1334      N1338   1.349       .  A
C1335      C1354   1.461       .  S
C1335      H1339   1.081       .  S
N1336      C1347   1.337       .  A
C1340      C1352   1.462       .  S
C1340      N1356   1.348       .  A
Co1342    Cl1353   2.450       .  S
N1343      C1354   1.349       .  A
Co1346    Cl1353   2.453       .  S
C1357      C1358   1.402       .  A
C1357      C1362   1.403       .  A
C1357      H1364   1.085       .  S
C1358      C1359   1.411       .  A
C1359      C1360   1.404       .  A
C1359      C1366   1.506       .  S
C1360      C1361   1.403       .  A
C1360      H1365   1.084       .  S
C1361      C1362   1.412       .  A
C1362      C1363   1.507       .  S
C1363      H1367   1.111       .  S
C1363      H1368   1.110       .  S
C1363      H1369   1.111       .  S
C1366      H1370   1.111       .  S
C1366      H1371   1.110       .  S
C1366      H1372   1.111       .  S
C1373      C1374   1.402       .  A
C1373      C1378   1.402       .  A
C1373      H1380   1.084       .  S
C1374      C1375   1.415       .  A
C1375      C1376   1.404       .  A
C1375      C1382   1.508       .  S
C1376      C1377   1.402       .  A
C1376      H1381   1.084       .  S
C1377      C1378   1.414       .  A
C1378      C1379   1.508       .  S
C1379      H1383   1.111       .  S
C1379      H1384   1.110       .  S
C1379      H1385   1.109       .  S
C1382      H1386   1.109       .  S
C1382      H1387   1.110       .  S
C1382      H1388   1.111       .  S
C1389      C1390   1.402       .  A
C1389      C1394   1.404       .  A
C1389      H1396   1.084       .  S
C1390      C1391   1.414       .  A
C1391      C1392   1.402       .  A
C1391      C1398   1.508       .  S
C1392      C1393   1.402       .  A
C1392      H1397   1.085       .  S
C1393      C1394   1.414       .  A
C1394      C1395   1.507       .  S
C1395      H1399   1.111       .  S
C1395      H1400   1.109       .  S
C1395      H1401   1.110       .  S
C1398      H1402   1.110       .  S
C1398      H1403   1.109       .  S
C1398      H1404   1.111       .  S
C1405      C1406   1.405       .  A
C1405      C1410   1.403       .  A
C1405      H1412   1.085       .  S
C1406      C1407   1.416       .  A
C1407      C1408   1.402       .  A
C1407      C1414   1.509       .  S
C1408      C1409   1.404       .  A
C1408      H1413   1.085       .  S
C1409      C1410   1.415       .  A
C1410      C1411   1.509       .  S
C1411      H1415   1.111       .  S
C1411      H1416   1.108       .  S
C1411      H1417   1.109       .  S
C1414      H1418   1.110       .  S
C1414      H1419   1.108       .  S
C1414      H1420   1.111       .  S
C1421      C1422   1.403       .  A
C1421      C1426   1.402       .  A
C1421      H1428   1.083       .  S
C1422      C1423   1.416       .  A
C1423      C1424   1.404       .  A
C1423      C1430   1.509       .  S
C1424      C1425   1.404       .  A
C1424      H1429   1.083       .  S
C1425      C1426   1.414       .  A
C1426      C1427   1.506       .  S
C1427      H1431   1.109       .  S
C1427      H1432   1.107       .  S
C1427      H1433   1.110       .  S
C1430      H1434   1.110       .  S
C1430      H1435   1.107       .  S
C1430      H1436   1.111       .  S
C1437      C1438   1.401       .  A
C1437      C1442   1.403       .  A
C1437      H1444   1.084       .  S
C1438      C1439   1.410       .  A
C1439      C1440   1.404       .  A
C1439      C1446   1.504       .  S
C1440      C1441   1.402       .  A
C1440      H1445   1.084       .  S
C1441      C1442   1.413       .  A
C1442      C1443   1.507       .  S
C1443      H1447   1.111       .  S
C1443      H1448   1.110       .  S
C1443      H1449   1.110       .  S
C1446      H1450   1.110       .  S
C1446      H1451   1.110       .  S
C1446      H1452   1.110       .  S
C1453      C1454   1.400       .  A
C1453      C1458   1.398       .  A
C1453      C1801   1.476       .  S
C1454      C1455   1.404       .  A
C1454      H1459   1.084       .  S
C1455      C1456   1.405       .  A
C1455      C1667   1.473       .  S
C1456      C1457   1.405       .  A
C1456      H1460   1.084       .  S
C1457      C1458   1.403       .  A
C1457      C1611   1.471       .  S
C1458      H1461   1.084       .  S
C1462      C1463   1.401       .  A
C1462      C1467   1.397       .  A
C1462      C1804   1.477       .  S
C1463      C1464   1.406       .  A
C1463      H1468   1.084       .  S
C1464      C1465   1.406       .  A
C1464      C1717   1.474       .  S
C1465      C1466   1.404       .  A
C1465      H1469   1.084       .  S
C1466      C1467   1.401       .  A
C1466      C1561   1.470       .  S
C1467      H1470   1.084       .  S
C1471      C1472   1.401       .  A
C1471      C1476   1.403       .  A
C1471      C1785   1.485       .  S
C1472      C1473   1.400       .  A
C1472      H1477   1.084       .  S
C1473      C1474   1.403       .  A
C1473      C1675   1.469       .  S
C1474      C1475   1.405       .  A
C1474      H1478   1.084       .  S
C1475      C1476   1.405       .  A
C1475      C1664   1.473       .  S
C1476      H1479   1.082       .  S
C1480      C1481   1.401       .  A
C1480      C1485   1.402       .  A
C1480      C1788   1.485       .  S
C1481      C1482   1.402       .  A
C1481      H1486   1.082       .  S
C1482      C1483   1.403       .  A
C1482      C1697   1.470       .  S
C1483      C1484   1.404       .  A
C1483      H1487   1.084       .  S
C1484      C1485   1.403       .  A
C1484      C1614   1.472       .  S
C1485      H1488   1.084       .  S
C1489      C1490   1.401       .  A
C1489      C1494   1.401       .  A
C1489      C1772   1.483       .  S
C1490      C1491   1.402       .  A
C1490      H1495   1.083       .  S
C1491      C1492   1.404       .  A
C1491      C1569   1.471       .  S
C1492      C1493   1.404       .  A
C1492      H1496   1.083       .  S
C1493      C1494   1.403       .  A
C1493      C1644   1.470       .  S
C1494      H1497   1.084       .  S
C1498      C1499   1.401       .  A
C1498      C1503   1.402       .  A
C1498      C1769   1.484       .  S
C1499      C1500   1.401       .  A
C1499      H1504   1.084       .  S
C1500      C1501   1.403       .  A
C1500      C1622   1.469       .  S
C1501      C1502   1.405       .  A
C1501      H1505   1.084       .  S
C1502      C1503   1.404       .  A
C1502      C1591   1.472       .  S
C1503      H1506   1.083       .  S
C1507      C1508   1.397       .  A
C1507      C1512   1.401       .  A
C1507      C1753   1.477       .  S
C1508      C1509   1.401       .  A
C1508      H1513   1.084       .  S
C1509      C1510   1.404       .  A
C1509      C1629   1.469       .  S
C1510      C1511   1.405       .  A
C1510      H1514   1.084       .  S
C1511      C1512   1.406       .  A
C1511      C1703   1.474       .  S
C1512      H1515   1.084       .  S
C1516      C1517   1.401       .  A
C1516      C1521   1.398       .  A
C1516      C1756   1.478       .  S
C1517      C1518   1.405       .  A
C1517      H1522   1.084       .  S
C1518      C1519   1.406       .  A
C1518      C1654   1.473       .  S
C1519      C1520   1.404       .  A
C1519      H1523   1.084       .  S
C1520      C1521   1.402       .  A
C1520      C1687   1.470       .  S
C1521      H1524   1.084       .  S
C1525      C1526   1.398       .  A
C1525      C1530   1.402       .  A
C1525      C1737   1.480       .  S
C1526      C1527   1.402       .  A
C1526      H1531   1.084       .  S
C1527      C1528   1.404       .  A
C1527      C1634   1.470       .  S
C1528      C1529   1.406       .  A
C1528      H1532   1.084       .  S
C1529      C1530   1.406       .  A
C1529      C1597   1.474       .  S
C1530      H1533   1.084       .  S
C1534      C1535   1.402       .  A
C1534      C1539   1.397       .  A
C1534      C1740   1.479       .  S
C1535      C1536   1.406       .  A
C1535      H1540   1.084       .  S
C1536      C1537   1.405       .  A
C1536      C1650   1.474       .  S
C1537      C1538   1.404       .  A
C1537      H1541   1.084       .  S
C1538      C1539   1.401       .  A
C1538      C1581   1.469       .  S
C1539      H1542   1.084       .  S
C1543      C1544   1.397       .  A
C1543      C1548   1.401       .  A
C1543      C1721   1.475       .  S
C1544      C1545   1.401       .  A
C1544      H1549   1.084       .  S
C1545      C1546   1.404       .  A
C1545      C1682   1.469       .  S
C1546      C1547   1.405       .  A
C1546      H1550   1.084       .  S
C1547      C1548   1.406       .  A
C1547      C1601   1.474       .  S
C1548      H1551   1.084       .  S
C1552      C1553   1.400       .  A
C1552      C1557   1.397       .  A
C1552      C1724   1.476       .  S
C1553      C1554   1.405       .  A
C1553      H1558   1.084       .  S
C1554      C1555   1.405       .  A
C1554      C1707   1.473       .  S
C1555      C1556   1.404       .  A
C1555      H1559   1.084       .  S
C1556      C1557   1.402       .  A
C1556      C1576   1.470       .  S
C1557      H1560   1.084       .  S
C1561      C1598   1.455       .  S
C1561      N1579   1.351       .  A
N1562      N1579   1.327       .  A
N1562      N1584   1.320       .  A
N1562     Co1599   2.089       .  S
C1563      C1601   1.462       .  S
C1563      H1608   1.082       .  S
C1563      N1588   1.344       .  A
H1564      C1605   1.082       .  S
C1565      C1569   1.457       .  S
C1565      H1594   1.081       .  S
C1565      N1589   1.338       .  A
Co1566     N1584   2.072       .  S
Co1566     N1574   2.078       .  S
Co1566     N1606   2.076       .  S
Co1566     N1582   2.076       .  S
Co1566    Cl1610   2.449       .  S
N1567      C1605   1.343       .  A
N1567      N1574   1.320       .  A
N1567     Co1568   2.087       .  S
Co1568     N1934   2.089       .  S
Co1568     N1588   2.092       .  S
Co1568     N1938   2.088       .  S
Co1568    Cl1610   2.450       .  S
C1569      N1607   1.350       .  A
N1570      N1577   1.320       .  A
N1570      N1600   1.323       .  A
N1570     Co1603   2.080       .  S
N1571      N1589   1.320       .  A
N1571      N1607   1.326       .  A
N1571     Co1931   2.089       .  S
N1572      C1601   1.347       .  A
N1572      N1582   1.323       .  A
H1573      C1598   1.081       .  S
N1574      N1595   1.323       .  A
N1575      N1593   1.321       .  A
N1575      N1580   1.326       .  A
N1575     Co1931   2.088       .  S
C1576      C1604   1.456       .  S
C1576      N1580   1.350       .  A
N1577      C1592   1.343       .  A
N1577     Co1962   2.085   1_554  S
C1578      C1581   1.456       .  S
C1578      H1612   1.081       .  S
C1578      N1606   1.337       .  A
C1581      N1602   1.350       .  A
N1582      N1588   1.320       .  A
N1583      C1609   1.343       .  A
N1583      N1585   1.320       .  A
N1583     Co1962   2.089   1_554  S
N1584      C1598   1.336       .  A
N1585      N1613   1.323       .  A
N1585     Co1603   2.081       .  S
H1586      C1609   1.081       .  S
H1587      C1604   1.081       .  S
N1589     Co1603   2.078       .  S
N1590      N1602   1.326       .  A
N1590      N1606   1.320       .  A
N1590     Co1599   2.086       .  S
C1591      C1605   1.460       .  S
C1591      N1595   1.348       .  A
C1592      C1611   1.459       .  S
C1592      H1596   1.081       .  S
N1593      C1604   1.337       .  A
N1593     Co1603   2.077       .  S
C1597      C1609   1.461       .  S
C1597      N1613   1.349       .  A
Co1599     N1940   2.085       .  S
Co1599     N1946   2.089       .  S
Co1599    Cl1610   2.450       .  S
N1600      C1611   1.349       .  A
Co1603    Cl1973   2.451   1_554  S
Cl1610    Co1966   2.451       .  S
C1614      C1651   1.458       .  S
C1614      N1632   1.350       .  A
N1615      N1637   1.320       .  A
N1615     Co2015   2.089   1_455  S
C1616      C1654   1.460       .  S
C1616      H1661   1.081       .  S
C1616      N1641   1.343       .  A
H1617      C1658   1.082       .  S
C1618      C1622   1.456       .  S
C1618      H1647   1.081       .  S
Co1619     N1637   2.080   1_655  S
Co1619     N1627   2.078   1_655  S
Co1619     N1659   2.075       .  S
Co1619     N1635   2.081       .  S
Co1619    Cl2026   2.451   1_554  S
N1620      N1627   1.320       .  A
N1620     Co1984   2.086   1_454  S
Co1621     N1983   2.086   1_655  S
Co1621     N1624   2.087   1_655  S
Co1621     N2004   2.087       .  S
Co1621     N1628   2.086       .  S
Co1621    Cl1663   2.449       .  S
C1622      N1660   1.350       .  A
N1623      N1630   1.320       .  A
N1623     Co1656   2.080   1_455  S
N1624      N1642   1.320       .  A
N1625      C1654   1.349       .  A
N1625      N1635   1.323       .  A
H1626      C1651   1.081       .  S
N1628      N1646   1.320       .  A
N1628      N1633   1.326       .  A
C1629      C1657   1.457       .  S
C1629      N1633   1.349       .  A
N1630     Co1652   2.088   1_455  S
C1631      C1634   1.455       .  S
C1631      H1665   1.081       .  S
C1631      N1659   1.336       .  A
C1634      N1655   1.351       .  A
N1635      N1641   1.320       .  A
N1636      C1662   1.343       .  A
N1636      N1638   1.320       .  A
N1636     Co1652   2.090       .  S
N1638      N1666   1.323       .  A
N1638     Co1656   2.080       .  S
H1639      C1662   1.082       .  S
H1640      C1657   1.081       .  S
N1641     Co1984   2.087   1_554  S
N1642     Co1656   2.077   1_455  S
N1643      N1655   1.327       .  A
N1643      N1659   1.320       .  A
N1643     Co2015   2.091       .  S
C1644      C1658   1.460       .  S
C1644      N1648   1.348       .  A
C1645      C1664   1.460       .  S
C1645      H1649   1.081       .  S
N1646      C1657   1.337       .  A
N1646     Co1656   2.077       .  S
C1650      C1662   1.461       .  S
C1650      N1666   1.348       .  A
Co1652     N1978   2.089   1_655  S
Co1652     N2006   2.091       .  S
Co1652    Cl1663   2.449       .  S
N1653      C1664   1.349       .  A
Co1656    Cl1663   2.452       .  S
Cl1663    Co1982   2.451       .  S
C1667      C1704   1.456       .  S
C1667      N1685   1.351       .  A
N1668      N1685   1.327       .  A
N1668      N1690   1.321       .  A
N1668     Co2068   2.094   1_554  S
C1669      C1707   1.461       .  S
C1669      H1714   1.081       .  S
C1669      N1694   1.343       .  A
H1670      C1711   1.082       .  S
C1671      C1675   1.457       .  S
C1671      H1700   1.082       .  S
C1671      N1695   1.337       .  A
Co1672     N1690   2.077       .  S
Co1672     N1680   2.080       .  S
Co1672     N2438   2.075       .  S
Co1672     N2414   2.079       .  S
Co1672    Cl2079   2.452   1_554  S
N1673      C1711   1.343       .  A
N1673      N1680   1.320       .  A
N1673     Co2037   2.085   1_554  S
Co1674     N2036   2.085       .  S
Co1674     N1677   2.086       .  S
Co1674     N2783   2.088       .  S
Co1674     N2407   2.085       .  S
Co1674    Cl1716   2.450       .  S
C1675      N1713   1.349       .  A
N1676      N1683   1.320       .  A
N1676      N1706   1.324       .  A
N1676     Co1709   2.082       .  S
N1677      N1695   1.320       .  A
N1677      N1713   1.326       .  A
N1678      C1707   1.348       .  A
N1678      N1688   1.323       .  A
H1679      C1704   1.082       .  S
N1680      N1701   1.322       .  A
N1681      N1699   1.320       .  A
N1681      N1686   1.326       .  A
N1681     Co2400   2.085   1_545  S
C1682      C1710   1.457       .  S
C1682      N1686   1.349       .  A
N1683      C1698   1.343       .  A
N1683     Co1705   2.091       .  S
C1684      C1687   1.455       .  S
C1684      H1718   1.081       .  S
C1684      N1712   1.336       .  A
C1687      N1708   1.351       .  A
N1688      N1694   1.320       .  A
N1688     Co2398   2.079   1_545  S
N1689      C1715   1.344       .  A
N1689      N1691   1.320       .  A
N1689     Co2431   2.093   1_545  S
N1690      C1704   1.338       .  A
N1691      N1719   1.323       .  A
N1691     Co2435   2.079   1_545  S
H1692      C1715   1.082       .  S
H1693      C1710   1.082       .  S
N1694     Co2763   2.088   1_544  S
N1695     Co1709   2.078       .  S
N1696      N1708   1.327       .  A
N1696      N1712   1.321       .  A
N1696     Co2794   2.091   1_544  S
C1697      C1711   1.459       .  S
C1697      N1701   1.349       .  A
C1698      C1717   1.461       .  S
C1698      H1702   1.081       .  S
N1699      C1710   1.337       .  A
N1699     Co2435   2.078   1_545  S
C1703      C1715   1.462       .  S
C1703      N1719   1.348       .  A
Co1705     N2031   2.094       .  S
Co1705     N2415   2.093       .  S
Co1705     N2785   2.091       .  S
Co1705    Cl1716   2.450       .  S
N1706      C1717   1.349       .  A
Co1709     N2417   2.079       .  S
Co1709     N2425   2.078       .  S
Co1709    Cl1716   2.453       .  S
N1712     Co2398   2.075   1_545  S
Cl1716    Co2035   2.452       .  S
C1720      C1721   1.402       .  A
C1720      C1725   1.403       .  A
C1720      H1727   1.085       .  S
C1721      C1722   1.411       .  A
C1722      C1723   1.404       .  A
C1722      C1729   1.506       .  S
C1723      C1724   1.403       .  A
C1723      H1728   1.084       .  S
C1724      C1725   1.412       .  A
C1725      C1726   1.507       .  S
C1726      H1730   1.111       .  S
C1726      H1731   1.110       .  S
C1726      H1732   1.111       .  S
C1729      H1733   1.111       .  S
C1729      H1734   1.110       .  S
C1729      H1735   1.111       .  S
C1736      C1737   1.402       .  A
C1736      C1741   1.402       .  A
C1736      H1743   1.084       .  S
C1737      C1738   1.415       .  A
C1738      C1739   1.404       .  A
C1738      C1745   1.508       .  S
C1739      C1740   1.402       .  A
C1739      H1744   1.084       .  S
C1740      C1741   1.414       .  A
C1741      C1742   1.508       .  S
C1742      H1746   1.111       .  S
C1742      H1747   1.110       .  S
C1742      H1748   1.109       .  S
C1745      H1749   1.109       .  S
C1745      H1750   1.110       .  S
C1745      H1751   1.111       .  S
C1752      C1753   1.402       .  A
C1752      C1757   1.404       .  A
C1752      H1759   1.084       .  S
C1753      C1754   1.414       .  A
C1754      C1755   1.402       .  A
C1754      C1761   1.508       .  S
C1755      C1756   1.402       .  A
C1755      H1760   1.085       .  S
C1756      C1757   1.414       .  A
C1757      C1758   1.507       .  S
C1758      H1762   1.111       .  S
C1758      H1763   1.109       .  S
C1758      H1764   1.110       .  S
C1761      H1765   1.110       .  S
C1761      H1766   1.109       .  S
C1761      H1767   1.111       .  S
C1768      C1769   1.405       .  A
C1768      C1773   1.403       .  A
C1768      H1775   1.085       .  S
C1769      C1770   1.416       .  A
C1770      C1771   1.402       .  A
C1770      C1777   1.509       .  S
C1771      C1772   1.404       .  A
C1771      H1776   1.085       .  S
C1772      C1773   1.415       .  A
C1773      C1774   1.509       .  S
C1774      H1778   1.111       .  S
C1774      H1779   1.108       .  S
C1774      H1780   1.109       .  S
C1777      H1781   1.110       .  S
C1777      H1782   1.108       .  S
C1777      H1783   1.111       .  S
C1784      C1785   1.403       .  A
C1784      C1789   1.402       .  A
C1784      H1791   1.083       .  S
C1785      C1786   1.416       .  A
C1786      C1787   1.404       .  A
C1786      C1793   1.509       .  S
C1787      C1788   1.404       .  A
C1787      H1792   1.083       .  S
C1788      C1789   1.414       .  A
C1789      C1790   1.506       .  S
C1790      H1794   1.109       .  S
C1790      H1795   1.107       .  S
C1790      H1796   1.110       .  S
C1793      H1797   1.110       .  S
C1793      H1798   1.107       .  S
C1793      H1799   1.111       .  S
C1800      C1801   1.401       .  A
C1800      C1805   1.403       .  A
C1800      H1807   1.084       .  S
C1801      C1802   1.410       .  A
C1802      C1803   1.404       .  A
C1802      C1809   1.504       .  S
C1803      C1804   1.402       .  A
C1803      H1808   1.084       .  S
C1804      C1805   1.413       .  A
C1805      C1806   1.507       .  S
C1806      H1810   1.111       .  S
C1806      H1811   1.110       .  S
C1806      H1812   1.110       .  S
C1809      H1813   1.110       .  S
C1809      H1814   1.110       .  S
C1809      H1815   1.110       .  S
C1816      C1817   1.400       .  A
C1816      C1821   1.398       .  A
C1816      C2164   1.476       .  S
C1817      C1818   1.404       .  A
C1817      H1822   1.084       .  S
C1818      C1819   1.405       .  A
C1818      C2030   1.473       .  S
C1819      C1820   1.405       .  A
C1819      H1823   1.084       .  S
C1820      C1821   1.403       .  A
C1820      C1974   1.471       .  S
C1821      H1824   1.084       .  S
C1825      C1826   1.401       .  A
C1825      C1830   1.397       .  A
C1825      C2167   1.477       .  S
C1826      C1827   1.406       .  A
C1826      H1831   1.084       .  S
C1827      C1828   1.406       .  A
C1827      C2080   1.474       .  S
C1828      C1829   1.404       .  A
C1828      H1832   1.084       .  S
C1829      C1830   1.401       .  A
C1829      C1924   1.470       .  S
C1830      H1833   1.084       .  S
C1834      C1835   1.401       .  A
C1834      C1839   1.403       .  A
C1834      C2148   1.485       .  S
C1835      C1836   1.400       .  A
C1835      H1840   1.084       .  S
C1836      C1837   1.403       .  A
C1836      C2038   1.469       .  S
C1837      C1838   1.405       .  A
C1837      H1841   1.084       .  S
C1838      C1839   1.405       .  A
C1838      C2027   1.473       .  S
C1839      H1842   1.082       .  S
C1843      C1844   1.401       .  A
C1843      C1848   1.402       .  A
C1843      C2151   1.485       .  S
C1844      C1845   1.402       .  A
C1844      H1849   1.082       .  S
C1845      C1846   1.403       .  A
C1845      C2060   1.470       .  S
C1846      C1847   1.404       .  A
C1846      H1850   1.084       .  S
C1847      C1848   1.403       .  A
C1847      C1977   1.472       .  S
C1848      H1851   1.084       .  S
C1852      C1853   1.401       .  A
C1852      C1857   1.401       .  A
C1852      C2135   1.483       .  S
C1853      C1854   1.402       .  A
C1853      H1858   1.083       .  S
C1854      C1855   1.404       .  A
C1854      C1932   1.471       .  S
C1855      C1856   1.404       .  A
C1855      H1859   1.083       .  S
C1856      C1857   1.403       .  A
C1856      C2007   1.470       .  S
C1857      H1860   1.084       .  S
C1861      C1862   1.401       .  A
C1861      C1866   1.402       .  A
C1861      C2132   1.484       .  S
C1862      C1863   1.401       .  A
C1862      H1867   1.084       .  S
C1863      C1864   1.403       .  A
C1863      C1985   1.469       .  S
C1864      C1865   1.405       .  A
C1864      H1868   1.084       .  S
C1865      C1866   1.404       .  A
C1865      C1954   1.472       .  S
C1866      H1869   1.083       .  S
C1870      C1871   1.397       .  A
C1870      C1875   1.401       .  A
C1870      C2116   1.477       .  S
C1871      C1872   1.401       .  A
C1871      H1876   1.084       .  S
C1872      C1873   1.404       .  A
C1872      C1992   1.469       .  S
C1873      C1874   1.405       .  A
C1873      H1877   1.084       .  S
C1874      C1875   1.406       .  A
C1874      C2066   1.474       .  S
C1875      H1878   1.084       .  S
C1879      C1880   1.401       .  A
C1879      C1884   1.398       .  A
C1879      C2119   1.478       .  S
C1880      C1881   1.405       .  A
C1880      H1885   1.084       .  S
C1881      C1882   1.406       .  A
C1881      C2017   1.473       .  S
C1882      C1883   1.404       .  A
C1882      H1886   1.084       .  S
C1883      C1884   1.402       .  A
C1883      C2050   1.470       .  S
C1884      H1887   1.084       .  S
C1888      C1889   1.398       .  A
C1888      C1893   1.402       .  A
C1888      C2100   1.480       .  S
C1889      C1890   1.402       .  A
C1889      H1894   1.084       .  S
C1890      C1891   1.404       .  A
C1890      C1997   1.470       .  S
C1891      C1892   1.406       .  A
C1891      H1895   1.084       .  S
C1892      C1893   1.406       .  A
C1892      C1960   1.474       .  S
C1893      H1896   1.084       .  S
C1897      C1898   1.402       .  A
C1897      C1902   1.397       .  A
C1897      C2103   1.479       .  S
C1898      C1899   1.406       .  A
C1898      H1903   1.084       .  S
C1899      C1900   1.405       .  A
C1899      C2013   1.474       .  S
C1900      C1901   1.404       .  A
C1900      H1904   1.084       .  S
C1901      C1902   1.401       .  A
C1901      C1944   1.469       .  S
C1902      H1905   1.084       .  S
C1906      C1907   1.397       .  A
C1906      C1911   1.401       .  A
C1906      C2084   1.475       .  S
C1907      C1908   1.401       .  A
C1907      H1912   1.084       .  S
C1908      C1909   1.404       .  A
C1908      C2045   1.469       .  S
C1909      C1910   1.405       .  A
C1909      H1913   1.084       .  S
C1910      C1911   1.406       .  A
C1910      C1964   1.474       .  S
C1911      H1914   1.084       .  S
C1915      C1916   1.400       .  A
C1915      C1920   1.397       .  A
C1915      C2087   1.476       .  S
C1916      C1917   1.405       .  A
C1916      H1921   1.084       .  S
C1917      C1918   1.405       .  A
C1917      C2070   1.473       .  S
C1918      C1919   1.404       .  A
C1918      H1922   1.084       .  S
C1919      C1920   1.402       .  A
C1919      C1939   1.470       .  S
C1920      H1923   1.084       .  S
C1924      C1961   1.455       .  S
C1924      N1942   1.351       .  A
N1925      N1942   1.327       .  A
N1925      N1947   1.320       .  A
N1925     Co1962   2.089       .  S
C1926      C1964   1.462       .  S
C1926      H1971   1.082       .  S
C1926      N1951   1.344       .  A
H1927      C1968   1.082       .  S
C1928      C1932   1.457       .  S
C1928      H1957   1.081       .  S
C1928      N1952   1.338       .  A
Co1929     N1947   2.072       .  S
Co1929     N1937   2.078       .  S
Co1929     N1969   2.076       .  S
Co1929     N1945   2.076       .  S
Co1929    Cl1973   2.449       .  S
N1930      C1968   1.343       .  A
N1930      N1937   1.320       .  A
N1930     Co1931   2.087   1_556  S
Co1931     N1951   2.092   1_554  S
Co1931    Cl1973   2.450   1_554  S
C1932      N1970   1.350       .  A
N1933      N1940   1.320       .  A
N1933      N1963   1.323       .  A
N1933     Co1966   2.080       .  S
N1934      N1952   1.320       .  A
N1934      N1970   1.326       .  A
N1935      C1964   1.347       .  A
N1935      N1945   1.323       .  A
H1936      C1961   1.081       .  S
N1937      N1958   1.323       .  A
N1938      N1956   1.321       .  A
N1938      N1943   1.326       .  A
C1939      C1967   1.456       .  S
C1939      N1943   1.350       .  A
N1940      C1955   1.343       .  A
C1941      C1944   1.456       .  S
C1941      H1975   1.081       .  S
C1941      N1969   1.337       .  A
C1944      N1965   1.350       .  A
N1945      N1951   1.320       .  A
N1946      C1972   1.343       .  A
N1946      N1948   1.320       .  A
N1947      C1961   1.336       .  A
N1948      N1976   1.323       .  A
N1948     Co1966   2.081       .  S
H1949      C1972   1.081       .  S
H1950      C1967   1.081       .  S
N1952     Co1966   2.078       .  S
N1953      N1965   1.326       .  A
N1953      N1969   1.320       .  A
N1953     Co1962   2.086       .  S
C1954      C1968   1.460       .  S
C1954      N1958   1.348       .  A
C1955      C1974   1.459       .  S
C1955      H1959   1.081       .  S
N1956      C1967   1.337       .  A
N1956     Co1966   2.077       .  S
C1960      C1972   1.461       .  S
C1960      N1976   1.349       .  A
Co1962    Cl1973   2.450       .  S
N1963      C1974   1.349       .  A
C1977      C2014   1.458       .  S
C1977      N1995   1.350       .  A
N1978      N2000   1.320       .  A
C1979      C2017   1.460       .  S
C1979      H2024   1.081       .  S
C1979      N2004   1.343       .  A
H1980      C2021   1.082       .  S
C1981      C1985   1.456       .  S
C1981      H2010   1.081       .  S
Co1982     N2000   2.080   1_655  S
Co1982     N1990   2.078   1_655  S
Co1982     N2022   2.075       .  S
Co1982     N1998   2.081       .  S
N1983      N1990   1.320       .  A
Co1984     N1987   2.087   1_655  S
Co1984     N1991   2.086       .  S
Co1984    Cl2026   2.449       .  S
C1985      N2023   1.350       .  A
N1986      N1993   1.320       .  A
N1986     Co2019   2.080   1_455  S
N1987      N2005   1.320       .  A
N1988      C2017   1.349       .  A
N1988      N1998   1.323       .  A
H1989      C2014   1.081       .  S
N1991      N2009   1.320       .  A
N1991      N1996   1.326       .  A
C1992      C2020   1.457       .  S
C1992      N1996   1.349       .  A
N1993     Co2015   2.088   1_456  S
C1994      C1997   1.455       .  S
C1994      H2028   1.081       .  S
C1994      N2022   1.336       .  A
C1997      N2018   1.351       .  A
N1998      N2004   1.320       .  A
N1999      C2025   1.343       .  A
N1999      N2001   1.320       .  A
N1999     Co2015   2.090   1_556  S
N2001      N2029   1.323       .  A
N2001     Co2019   2.080       .  S
H2002      C2025   1.082       .  S
H2003      C2020   1.081       .  S
N2005     Co2019   2.077   1_455  S
N2006      N2018   1.327       .  A
N2006      N2022   1.320       .  A
C2007      C2021   1.460       .  S
C2007      N2011   1.348       .  A
C2008      C2027   1.460       .  S
C2008      H2012   1.081       .  S
N2009      C2020   1.337       .  A
N2009     Co2019   2.077       .  S
C2013      C2025   1.461       .  S
C2013      N2029   1.348       .  A
Co2015    Cl2026   2.449   1_554  S
N2016      C2027   1.349       .  A
Co2019    Cl2026   2.452       .  S
C2030      C2067   1.456       .  S
C2030      N2048   1.351       .  A
N2031      N2048   1.327       .  A
N2031      N2053   1.321       .  A
C2032      C2070   1.461       .  S
C2032      H2077   1.081       .  S
C2032      N2057   1.343       .  A
H2033      C2074   1.082       .  S
C2034      C2038   1.457       .  S
C2034      H2063   1.082       .  S
C2034      N2058   1.337       .  A
Co2035     N2053   2.077       .  S
Co2035     N2043   2.080       .  S
Co2035     N2801   2.075       .  S
Co2035     N2777   2.079       .  S
N2036      C2074   1.343       .  A
N2036      N2043   1.320       .  A
Co2037     N2040   2.086       .  S
Co2037     N2420   2.088   1_556  S
Co2037     N2770   2.085       .  S
Co2037    Cl2079   2.450       .  S
C2038      N2076   1.349       .  A
N2039      N2046   1.320       .  A
N2039      N2069   1.324       .  A
N2039     Co2072   2.082       .  S
N2040      N2058   1.320       .  A
N2040      N2076   1.326       .  A
N2041      C2070   1.348       .  A
N2041      N2051   1.323       .  A
H2042      C2067   1.082       .  S
N2043      N2064   1.322       .  A
N2044      N2062   1.320       .  A
N2044      N2049   1.326       .  A
N2044     Co2763   2.085   1_545  S
C2045      C2073   1.457       .  S
C2045      N2049   1.349       .  A
N2046      C2061   1.343       .  A
N2046     Co2068   2.091       .  S
C2047      C2050   1.455       .  S
C2047      H2081   1.081       .  S
C2047      N2075   1.336       .  A
C2050      N2071   1.351       .  A
N2051      N2057   1.320       .  A
N2051     Co2761   2.079   1_545  S
N2052      C2078   1.344       .  A
N2052      N2054   1.320       .  A
N2052     Co2794   2.093   1_545  S
N2053      C2067   1.338       .  A
N2054      N2082   1.323       .  A
N2054     Co2798   2.079   1_545  S
H2055      C2078   1.082       .  S
H2056      C2073   1.082       .  S
N2057     Co2400   2.088   1_545  S
N2058     Co2072   2.078       .  S
N2059      N2071   1.327       .  A
N2059      N2075   1.321       .  A
N2059     Co2431   2.091   1_545  S
C2060      C2074   1.459       .  S
C2060      N2064   1.349       .  A
C2061      C2080   1.461       .  S
C2061      H2065   1.081       .  S
N2062      C2073   1.337       .  A
N2062     Co2798   2.078   1_545  S
C2066      C2078   1.462       .  S
C2066      N2082   1.348       .  A
Co2068     N2778   2.093       .  S
Co2068     N2422   2.091   1_556  S
Co2068    Cl2079   2.450       .  S
N2069      C2080   1.349       .  A
Co2072     N2780   2.079       .  S
Co2072     N2788   2.078       .  S
Co2072    Cl2079   2.453       .  S
N2075     Co2761   2.075   1_545  S
C2083      C2084   1.402       .  A
C2083      C2088   1.403       .  A
C2083      H2090   1.085       .  S
C2084      C2085   1.411       .  A
C2085      C2086   1.404       .  A
C2085      C2092   1.506       .  S
C2086      C2087   1.403       .  A
C2086      H2091   1.084       .  S
C2087      C2088   1.412       .  A
C2088      C2089   1.507       .  S
C2089      H2093   1.111       .  S
C2089      H2094   1.110       .  S
C2089      H2095   1.111       .  S
C2092      H2096   1.111       .  S
C2092      H2097   1.110       .  S
C2092      H2098   1.111       .  S
C2099      C2100   1.402       .  A
C2099      C2104   1.402       .  A
C2099      H2106   1.084       .  S
C2100      C2101   1.415       .  A
C2101      C2102   1.404       .  A
C2101      C2108   1.508       .  S
C2102      C2103   1.402       .  A
C2102      H2107   1.084       .  S
C2103      C2104   1.414       .  A
C2104      C2105   1.508       .  S
C2105      H2109   1.111       .  S
C2105      H2110   1.110       .  S
C2105      H2111   1.109       .  S
C2108      H2112   1.109       .  S
C2108      H2113   1.110       .  S
C2108      H2114   1.111       .  S
C2115      C2116   1.402       .  A
C2115      C2120   1.404       .  A
C2115      H2122   1.084       .  S
C2116      C2117   1.414       .  A
C2117      C2118   1.402       .  A
C2117      C2124   1.508       .  S
C2118      C2119   1.402       .  A
C2118      H2123   1.085       .  S
C2119      C2120   1.414       .  A
C2120      C2121   1.507       .  S
C2121      H2125   1.111       .  S
C2121      H2126   1.109       .  S
C2121      H2127   1.110       .  S
C2124      H2128   1.110       .  S
C2124      H2129   1.109       .  S
C2124      H2130   1.111       .  S
C2131      C2132   1.405       .  A
C2131      C2136   1.403       .  A
C2131      H2138   1.085       .  S
C2132      C2133   1.416       .  A
C2133      C2134   1.402       .  A
C2133      C2140   1.509       .  S
C2134      C2135   1.404       .  A
C2134      H2139   1.085       .  S
C2135      C2136   1.415       .  A
C2136      C2137   1.509       .  S
C2137      H2141   1.111       .  S
C2137      H2142   1.108       .  S
C2137      H2143   1.109       .  S
C2140      H2144   1.110       .  S
C2140      H2145   1.108       .  S
C2140      H2146   1.111       .  S
C2147      C2148   1.403       .  A
C2147      C2152   1.402       .  A
C2147      H2154   1.083       .  S
C2148      C2149   1.416       .  A
C2149      C2150   1.404       .  A
C2149      C2156   1.509       .  S
C2150      C2151   1.404       .  A
C2150      H2155   1.083       .  S
C2151      C2152   1.414       .  A
C2152      C2153   1.506       .  S
C2153      H2157   1.109       .  S
C2153      H2158   1.107       .  S
C2153      H2159   1.110       .  S
C2156      H2160   1.110       .  S
C2156      H2161   1.107       .  S
C2156      H2162   1.111       .  S
C2163      C2164   1.401       .  A
C2163      C2168   1.403       .  A
C2163      H2170   1.084       .  S
C2164      C2165   1.410       .  A
C2165      C2166   1.404       .  A
C2165      C2172   1.504       .  S
C2166      C2167   1.402       .  A
C2166      H2171   1.084       .  S
C2167      C2168   1.413       .  A
C2168      C2169   1.507       .  S
C2169      H2173   1.111       .  S
C2169      H2174   1.110       .  S
C2169      H2175   1.110       .  S
C2172      H2176   1.110       .  S
C2172      H2177   1.110       .  S
C2172      H2178   1.110       .  S
C2179      C2180   1.400       .  A
C2179      C2184   1.398       .  A
C2179      C2527   1.476       .  S
C2180      C2181   1.404       .  A
C2180      H2185   1.084       .  S
C2181      C2182   1.405       .  A
C2181      C2393   1.473       .  S
C2182      C2183   1.405       .  A
C2182      H2186   1.084       .  S
C2183      C2184   1.403       .  A
C2183      C2337   1.471       .  S
C2184      H2187   1.084       .  S
C2188      C2189   1.401       .  A
C2188      C2193   1.397       .  A
C2188      C2530   1.477       .  S
C2189      C2190   1.406       .  A
C2189      H2194   1.084       .  S
C2190      C2191   1.406       .  A
C2190      C2443   1.474       .  S
C2191      C2192   1.404       .  A
C2191      H2195   1.084       .  S
C2192      C2193   1.401       .  A
C2192      C2287   1.470       .  S
C2193      H2196   1.084       .  S
C2197      C2198   1.401       .  A
C2197      C2202   1.403       .  A
C2197      C2511   1.485       .  S
C2198      C2199   1.400       .  A
C2198      H2203   1.084       .  S
C2199      C2200   1.403       .  A
C2199      C2401   1.469       .  S
C2200      C2201   1.405       .  A
C2200      H2204   1.084       .  S
C2201      C2202   1.405       .  A
C2201      C2390   1.473       .  S
C2202      H2205   1.082       .  S
C2206      C2207   1.401       .  A
C2206      C2211   1.402       .  A
C2206      C2514   1.485       .  S
C2207      C2208   1.402       .  A
C2207      H2212   1.082       .  S
C2208      C2209   1.403       .  A
C2208      C2423   1.470       .  S
C2209      C2210   1.404       .  A
C2209      H2213   1.084       .  S
C2210      C2211   1.403       .  A
C2210      C2340   1.472       .  S
C2211      H2214   1.084       .  S
C2215      C2216   1.401       .  A
C2215      C2220   1.401       .  A
C2215      C2498   1.483       .  S
C2216      C2217   1.402       .  A
C2216      H2221   1.083       .  S
C2217      C2218   1.404       .  A
C2217      C2295   1.471       .  S
C2218      C2219   1.404       .  A
C2218      H2222   1.083       .  S
C2219      C2220   1.403       .  A
C2219      C2370   1.470       .  S
C2220      H2223   1.084       .  S
C2224      C2225   1.401       .  A
C2224      C2229   1.402       .  A
C2224      C2495   1.484       .  S
C2225      C2226   1.401       .  A
C2225      H2230   1.084       .  S
C2226      C2227   1.403       .  A
C2226      C2348   1.469       .  S
C2227      C2228   1.405       .  A
C2227      H2231   1.084       .  S
C2228      C2229   1.404       .  A
C2228      C2317   1.472       .  S
C2229      H2232   1.083       .  S
C2233      C2234   1.397       .  A
C2233      C2238   1.401       .  A
C2233      C2479   1.477       .  S
C2234      C2235   1.401       .  A
C2234      H2239   1.084       .  S
C2235      C2236   1.404       .  A
C2235      C2355   1.469       .  S
C2236      C2237   1.405       .  A
C2236      H2240   1.084       .  S
C2237      C2238   1.406       .  A
C2237      C2429   1.474       .  S
C2238      H2241   1.084       .  S
C2242      C2243   1.401       .  A
C2242      C2247   1.398       .  A
C2242      C2482   1.478       .  S
C2243      C2244   1.405       .  A
C2243      H2248   1.084       .  S
C2244      C2245   1.406       .  A
C2244      C2380   1.473       .  S
C2245      C2246   1.404       .  A
C2245      H2249   1.084       .  S
C2246      C2247   1.402       .  A
C2246      C2413   1.470       .  S
C2247      H2250   1.084       .  S
C2251      C2252   1.398       .  A
C2251      C2256   1.402       .  A
C2251      C2463   1.480       .  S
C2252      C2253   1.402       .  A
C2252      H2257   1.084       .  S
C2253      C2254   1.404       .  A
C2253      C2360   1.470       .  S
C2254      C2255   1.406       .  A
C2254      H2258   1.084       .  S
C2255      C2256   1.406       .  A
C2255      C2323   1.474       .  S
C2256      H2259   1.084       .  S
C2260      C2261   1.402       .  A
C2260      C2265   1.397       .  A
C2260      C2466   1.479       .  S
C2261      C2262   1.406       .  A
C2261      H2266   1.084       .  S
C2262      C2263   1.405       .  A
C2262      C2376   1.474       .  S
C2263      C2264   1.404       .  A
C2263      H2267   1.084       .  S
C2264      C2265   1.401       .  A
C2264      C2307   1.469       .  S
C2265      H2268   1.084       .  S
C2269      C2270   1.397       .  A
C2269      C2274   1.401       .  A
C2269      C2447   1.475       .  S
C2270      C2271   1.401       .  A
C2270      H2275   1.084       .  S
C2271      C2272   1.404       .  A
C2271      C2408   1.469       .  S
C2272      C2273   1.405       .  A
C2272      H2276   1.084       .  S
C2273      C2274   1.406       .  A
C2273      C2327   1.474       .  S
C2274      H2277   1.084       .  S
C2278      C2279   1.400       .  A
C2278      C2283   1.397       .  A
C2278      C2450   1.476       .  S
C2279      C2280   1.405       .  A
C2279      H2284   1.084       .  S
C2280      C2281   1.405       .  A
C2280      C2433   1.473       .  S
C2281      C2282   1.404       .  A
C2281      H2285   1.084       .  S
C2282      C2283   1.402       .  A
C2282      C2302   1.470       .  S
C2283      H2286   1.084       .  S
C2287      C2324   1.455       .  S
C2287      N2305   1.351       .  A
N2288      N2305   1.327       .  A
N2288      N2310   1.320       .  A
N2288     Co2325   2.089       .  S
C2289      C2327   1.462       .  S
C2289      H2334   1.082       .  S
C2289      N2314   1.344       .  A
H2290      C2331   1.082       .  S
C2291      C2295   1.457       .  S
C2291      H2320   1.081       .  S
C2291      N2315   1.338       .  A
Co2292     N2310   2.072       .  S
Co2292     N2300   2.078       .  S
Co2292     N2332   2.076       .  S
Co2292     N2308   2.076       .  S
Co2292    Cl2336   2.449       .  S
N2293      C2331   1.343       .  A
N2293      N2300   1.320       .  A
N2293     Co2294   2.087       .  S
Co2294     N2660   2.089       .  S
Co2294     N2314   2.092       .  S
Co2294     N2664   2.088       .  S
Co2294    Cl2336   2.450       .  S
C2295      N2333   1.350       .  A
N2296      N2303   1.320       .  A
N2296      N2326   1.323       .  A
N2296     Co2329   2.080       .  S
N2297      N2315   1.320       .  A
N2297      N2333   1.326       .  A
N2297     Co2657   2.089       .  S
N2298      C2327   1.347       .  A
N2298      N2308   1.323       .  A
H2299      C2324   1.081       .  S
N2300      N2321   1.323       .  A
N2301      N2319   1.321       .  A
N2301      N2306   1.326       .  A
N2301     Co2657   2.088       .  S
C2302      C2330   1.456       .  S
C2302      N2306   1.350       .  A
N2303      C2318   1.343       .  A
N2303     Co2688   2.085   1_554  S
C2304      C2307   1.456       .  S
C2304      H2338   1.081       .  S
C2304      N2332   1.337       .  A
C2307      N2328   1.350       .  A
N2308      N2314   1.320       .  A
N2309      C2335   1.343       .  A
N2309      N2311   1.320       .  A
N2309     Co2688   2.089   1_554  S
N2310      C2324   1.336       .  A
N2311      N2339   1.323       .  A
N2311     Co2329   2.081       .  S
H2312      C2335   1.081       .  S
H2313      C2330   1.081       .  S
N2315     Co2329   2.078       .  S
N2316      N2328   1.326       .  A
N2316      N2332   1.320       .  A
N2316     Co2325   2.086       .  S
C2317      C2331   1.460       .  S
C2317      N2321   1.348       .  A
C2318      C2337   1.459       .  S
C2318      H2322   1.081       .  S
N2319      C2330   1.337       .  A
N2319     Co2329   2.077       .  S
C2323      C2335   1.461       .  S
C2323      N2339   1.349       .  A
Co2325     N2666   2.085       .  S
Co2325     N2672   2.089       .  S
Co2325    Cl2336   2.450       .  S
N2326      C2337   1.349       .  A
Co2329    Cl2699   2.451   1_554  S
Cl2336    Co2692   2.451       .  S
C2340      C2377   1.458       .  S
C2340      N2358   1.350       .  A
N2341      N2363   1.320       .  A
N2341     Co2741   2.089   1_455  S
C2342      C2380   1.460       .  S
C2342      H2387   1.081       .  S
C2342      N2367   1.343       .  A
H2343      C2384   1.082       .  S
C2344      C2348   1.456       .  S
C2344      H2373   1.081       .  S
Co2345     N2363   2.080   1_655  S
Co2345     N2353   2.078   1_655  S
Co2345     N2385   2.075       .  S
Co2345     N2361   2.081       .  S
Co2345    Cl2752   2.451   1_554  S
N2346      N2353   1.320       .  A
N2346     Co2710   2.086   1_454  S
Co2347     N2709   2.086   1_655  S
Co2347     N2350   2.087   1_655  S
Co2347     N2730   2.087       .  S
Co2347     N2354   2.086       .  S
Co2347    Cl2389   2.449       .  S
C2348      N2386   1.350       .  A
N2349      N2356   1.320       .  A
N2349     Co2382   2.080   1_455  S
N2350      N2368   1.320       .  A
N2351      C2380   1.349       .  A
N2351      N2361   1.323       .  A
H2352      C2377   1.081       .  S
N2354      N2372   1.320       .  A
N2354      N2359   1.326       .  A
C2355      C2383   1.457       .  S
C2355      N2359   1.349       .  A
N2356     Co2378   2.088   1_455  S
C2357      C2360   1.455       .  S
C2357      H2391   1.081       .  S
C2357      N2385   1.336       .  A
C2360      N2381   1.351       .  A
N2361      N2367   1.320       .  A
N2362      C2388   1.343       .  A
N2362      N2364   1.320       .  A
N2362     Co2378   2.090       .  S
N2364      N2392   1.323       .  A
N2364     Co2382   2.080       .  S
H2365      C2388   1.082       .  S
H2366      C2383   1.081       .  S
N2367     Co2710   2.087   1_554  S
N2368     Co2382   2.077   1_455  S
N2369      N2381   1.327       .  A
N2369      N2385   1.320       .  A
N2369     Co2741   2.091       .  S
C2370      C2384   1.460       .  S
C2370      N2374   1.348       .  A
C2371      C2390   1.460       .  S
C2371      H2375   1.081       .  S
N2372      C2383   1.337       .  A
N2372     Co2382   2.077       .  S
C2376      C2388   1.461       .  S
C2376      N2392   1.348       .  A
Co2378     N2704   2.089   1_655  S
Co2378     N2732   2.091       .  S
Co2378    Cl2389   2.449       .  S
N2379      C2390   1.349       .  A
Co2382    Cl2389   2.452       .  S
Cl2389    Co2708   2.451       .  S
C2393      C2430   1.456       .  S
C2393      N2411   1.351       .  A
N2394      N2411   1.327       .  A
N2394      N2416   1.321       .  A
N2394     Co2794   2.094   1_554  S
C2395      C2433   1.461       .  S
C2395      H2440   1.081       .  S
C2395      N2420   1.343       .  A
H2396      C2437   1.082       .  S
C2397      C2401   1.457       .  S
C2397      H2426   1.082       .  S
C2397      N2421   1.337       .  A
Co2398     N2416   2.077       .  S
Co2398     N2406   2.080       .  S
Co2398    Cl2805   2.452   1_554  S
N2399      C2437   1.343       .  A
N2399      N2406   1.320       .  A
N2399     Co2763   2.085   1_554  S
Co2400     N2762   2.085       .  S
Co2400     N2403   2.086       .  S
Co2400    Cl2442   2.450       .  S
C2401      N2439   1.349       .  A
N2402      N2409   1.320       .  A
N2402      N2432   1.324       .  A
N2402     Co2435   2.082       .  S
N2403      N2421   1.320       .  A
N2403      N2439   1.326       .  A
N2404      C2433   1.348       .  A
N2404      N2414   1.323       .  A
H2405      C2430   1.082       .  S
N2406      N2427   1.322       .  A
N2407      N2425   1.320       .  A
N2407      N2412   1.326       .  A
C2408      C2436   1.457       .  S
C2408      N2412   1.349       .  A
N2409      C2424   1.343       .  A
N2409     Co2431   2.091       .  S
C2410      C2413   1.455       .  S
C2410      H2444   1.081       .  S
C2410      N2438   1.336       .  A
C2413      N2434   1.351       .  A
N2414      N2420   1.320       .  A
N2415      C2441   1.344       .  A
N2415      N2417   1.320       .  A
N2416      C2430   1.338       .  A
N2417      N2445   1.323       .  A
H2418      C2441   1.082       .  S
H2419      C2436   1.082       .  S
N2421     Co2435   2.078       .  S
N2422      N2434   1.327       .  A
N2422      N2438   1.321       .  A
C2423      C2437   1.459       .  S
C2423      N2427   1.349       .  A
C2424      C2443   1.461       .  S
C2424      H2428   1.081       .  S
N2425      C2436   1.337       .  A
C2429      C2441   1.462       .  S
C2429      N2445   1.348       .  A
Co2431     N2757   2.094       .  S
Co2431    Cl2442   2.450       .  S
N2432      C2443   1.349       .  A
Co2435    Cl2442   2.453       .  S
Cl2442    Co2761   2.452       .  S
C2446      C2447   1.402       .  A
C2446      C2451   1.403       .  A
C2446      H2453   1.085       .  S
C2447      C2448   1.411       .  A
C2448      C2449   1.404       .  A
C2448      C2455   1.506       .  S
C2449      C2450   1.403       .  A
C2449      H2454   1.084       .  S
C2450      C2451   1.412       .  A
C2451      C2452   1.507       .  S
C2452      H2456   1.111       .  S
C2452      H2457   1.110       .  S
C2452      H2458   1.111       .  S
C2455      H2459   1.111       .  S
C2455      H2460   1.110       .  S
C2455      H2461   1.111       .  S
C2462      C2463   1.402       .  A
C2462      C2467   1.402       .  A
C2462      H2469   1.084       .  S
C2463      C2464   1.415       .  A
C2464      C2465   1.404       .  A
C2464      C2471   1.508       .  S
C2465      C2466   1.402       .  A
C2465      H2470   1.084       .  S
C2466      C2467   1.414       .  A
C2467      C2468   1.508       .  S
C2468      H2472   1.111       .  S
C2468      H2473   1.110       .  S
C2468      H2474   1.109       .  S
C2471      H2475   1.109       .  S
C2471      H2476   1.110       .  S
C2471      H2477   1.111       .  S
C2478      C2479   1.402       .  A
C2478      C2483   1.404       .  A
C2478      H2485   1.084       .  S
C2479      C2480   1.414       .  A
C2480      C2481   1.402       .  A
C2480      C2487   1.508       .  S
C2481      C2482   1.402       .  A
C2481      H2486   1.085       .  S
C2482      C2483   1.414       .  A
C2483      C2484   1.507       .  S
C2484      H2488   1.111       .  S
C2484      H2489   1.109       .  S
C2484      H2490   1.110       .  S
C2487      H2491   1.110       .  S
C2487      H2492   1.109       .  S
C2487      H2493   1.111       .  S
C2494      C2495   1.405       .  A
C2494      C2499   1.403       .  A
C2494      H2501   1.085       .  S
C2495      C2496   1.416       .  A
C2496      C2497   1.402       .  A
C2496      C2503   1.509       .  S
C2497      C2498   1.404       .  A
C2497      H2502   1.085       .  S
C2498      C2499   1.415       .  A
C2499      C2500   1.509       .  S
C2500      H2504   1.111       .  S
C2500      H2505   1.108       .  S
C2500      H2506   1.109       .  S
C2503      H2507   1.110       .  S
C2503      H2508   1.108       .  S
C2503      H2509   1.111       .  S
C2510      C2511   1.403       .  A
C2510      C2515   1.402       .  A
C2510      H2517   1.083       .  S
C2511      C2512   1.416       .  A
C2512      C2513   1.404       .  A
C2512      C2519   1.509       .  S
C2513      C2514   1.404       .  A
C2513      H2518   1.083       .  S
C2514      C2515   1.414       .  A
C2515      C2516   1.506       .  S
C2516      H2520   1.109       .  S
C2516      H2521   1.107       .  S
C2516      H2522   1.110       .  S
C2519      H2523   1.110       .  S
C2519      H2524   1.107       .  S
C2519      H2525   1.111       .  S
C2526      C2527   1.401       .  A
C2526      C2531   1.403       .  A
C2526      H2533   1.084       .  S
C2527      C2528   1.410       .  A
C2528      C2529   1.404       .  A
C2528      C2535   1.504       .  S
C2529      C2530   1.402       .  A
C2529      H2534   1.084       .  S
C2530      C2531   1.413       .  A
C2531      C2532   1.507       .  S
C2532      H2536   1.111       .  S
C2532      H2537   1.110       .  S
C2532      H2538   1.110       .  S
C2535      H2539   1.110       .  S
C2535      H2540   1.110       .  S
C2535      H2541   1.110       .  S
C2542      C2543   1.400       .  A
C2542      C2547   1.398       .  A
C2542      C2890   1.476       .  S
C2543      C2544   1.404       .  A
C2543      H2548   1.084       .  S
C2544      C2545   1.405       .  A
C2544      C2756   1.473       .  S
C2545      C2546   1.405       .  A
C2545      H2549   1.084       .  S
C2546      C2547   1.403       .  A
C2546      C2700   1.471       .  S
C2547      H2550   1.084       .  S
C2551      C2552   1.401       .  A
C2551      C2556   1.397       .  A
C2551      C2893   1.477       .  S
C2552      C2553   1.406       .  A
C2552      H2557   1.084       .  S
C2553      C2554   1.406       .  A
C2553      C2806   1.474       .  S
C2554      C2555   1.404       .  A
C2554      H2558   1.084       .  S
C2555      C2556   1.401       .  A
C2555      C2650   1.470       .  S
C2556      H2559   1.084       .  S
C2560      C2561   1.401       .  A
C2560      C2565   1.403       .  A
C2560      C2874   1.485       .  S
C2561      C2562   1.400       .  A
C2561      H2566   1.084       .  S
C2562      C2563   1.403       .  A
C2562      C2764   1.469       .  S
C2563      C2564   1.405       .  A
C2563      H2567   1.084       .  S
C2564      C2565   1.405       .  A
C2564      C2753   1.473       .  S
C2565      H2568   1.082       .  S
C2569      C2570   1.401       .  A
C2569      C2574   1.402       .  A
C2569      C2877   1.485       .  S
C2570      C2571   1.402       .  A
C2570      H2575   1.082       .  S
C2571      C2572   1.403       .  A
C2571      C2786   1.470       .  S
C2572      C2573   1.404       .  A
C2572      H2576   1.084       .  S
C2573      C2574   1.403       .  A
C2573      C2703   1.472       .  S
C2574      H2577   1.084       .  S
C2578      C2579   1.401       .  A
C2578      C2583   1.401       .  A
C2578      C2861   1.483       .  S
C2579      C2580   1.402       .  A
C2579      H2584   1.083       .  S
C2580      C2581   1.404       .  A
C2580      C2658   1.471       .  S
C2581      C2582   1.404       .  A
C2581      H2585   1.083       .  S
C2582      C2583   1.403       .  A
C2582      C2733   1.470       .  S
C2583      H2586   1.084       .  S
C2587      C2588   1.401       .  A
C2587      C2592   1.402       .  A
C2587      C2858   1.484       .  S
C2588      C2589   1.401       .  A
C2588      H2593   1.084       .  S
C2589      C2590   1.403       .  A
C2589      C2711   1.469       .  S
C2590      C2591   1.405       .  A
C2590      H2594   1.084       .  S
C2591      C2592   1.404       .  A
C2591      C2680   1.472       .  S
C2592      H2595   1.083       .  S
C2596      C2597   1.397       .  A
C2596      C2601   1.401       .  A
C2596      C2842   1.477       .  S
C2597      C2598   1.401       .  A
C2597      H2602   1.084       .  S
C2598      C2599   1.404       .  A
C2598      C2718   1.469       .  S
C2599      C2600   1.405       .  A
C2599      H2603   1.084       .  S
C2600      C2601   1.406       .  A
C2600      C2792   1.474       .  S
C2601      H2604   1.084       .  S
C2605      C2606   1.401       .  A
C2605      C2610   1.398       .  A
C2605      C2845   1.478       .  S
C2606      C2607   1.405       .  A
C2606      H2611   1.084       .  S
C2607      C2608   1.406       .  A
C2607      C2743   1.473       .  S
C2608      C2609   1.404       .  A
C2608      H2612   1.084       .  S
C2609      C2610   1.402       .  A
C2609      C2776   1.470       .  S
C2610      H2613   1.084       .  S
C2614      C2615   1.398       .  A
C2614      C2619   1.402       .  A
C2614      C2826   1.480       .  S
C2615      C2616   1.402       .  A
C2615      H2620   1.084       .  S
C2616      C2617   1.404       .  A
C2616      C2723   1.470       .  S
C2617      C2618   1.406       .  A
C2617      H2621   1.084       .  S
C2618      C2619   1.406       .  A
C2618      C2686   1.474       .  S
C2619      H2622   1.084       .  S
C2623      C2624   1.402       .  A
C2623      C2628   1.397       .  A
C2623      C2829   1.479       .  S
C2624      C2625   1.406       .  A
C2624      H2629   1.084       .  S
C2625      C2626   1.405       .  A
C2625      C2739   1.474       .  S
C2626      C2627   1.404       .  A
C2626      H2630   1.084       .  S
C2627      C2628   1.401       .  A
C2627      C2670   1.469       .  S
C2628      H2631   1.084       .  S
C2632      C2633   1.397       .  A
C2632      C2637   1.401       .  A
C2632      C2810   1.475       .  S
C2633      C2634   1.401       .  A
C2633      H2638   1.084       .  S
C2634      C2635   1.404       .  A
C2634      C2771   1.469       .  S
C2635      C2636   1.405       .  A
C2635      H2639   1.084       .  S
C2636      C2637   1.406       .  A
C2636      C2690   1.474       .  S
C2637      H2640   1.084       .  S
C2641      C2642   1.400       .  A
C2641      C2646   1.397       .  A
C2641      C2813   1.476       .  S
C2642      C2643   1.405       .  A
C2642      H2647   1.084       .  S
C2643      C2644   1.405       .  A
C2643      C2796   1.473       .  S
C2644      C2645   1.404       .  A
C2644      H2648   1.084       .  S
C2645      C2646   1.402       .  A
C2645      C2665   1.470       .  S
C2646      H2649   1.084       .  S
C2650      C2687   1.455       .  S
C2650      N2668   1.351       .  A
N2651      N2668   1.327       .  A
N2651      N2673   1.320       .  A
N2651     Co2688   2.089       .  S
C2652      C2690   1.462       .  S
C2652      H2697   1.082       .  S
C2652      N2677   1.344       .  A
H2653      C2694   1.082       .  S
C2654      C2658   1.457       .  S
C2654      H2683   1.081       .  S
C2654      N2678   1.338       .  A
Co2655     N2673   2.072       .  S
Co2655     N2663   2.078       .  S
Co2655     N2695   2.076       .  S
Co2655     N2671   2.076       .  S
Co2655    Cl2699   2.449       .  S
N2656      C2694   1.343       .  A
N2656      N2663   1.320       .  A
N2656     Co2657   2.087   1_556  S
Co2657     N2677   2.092   1_554  S
Co2657    Cl2699   2.450   1_554  S
C2658      N2696   1.350       .  A
N2659      N2666   1.320       .  A
N2659      N2689   1.323       .  A
N2659     Co2692   2.080       .  S
N2660      N2678   1.320       .  A
N2660      N2696   1.326       .  A
N2661      C2690   1.347       .  A
N2661      N2671   1.323       .  A
H2662      C2687   1.081       .  S
N2663      N2684   1.323       .  A
N2664      N2682   1.321       .  A
N2664      N2669   1.326       .  A
C2665      C2693   1.456       .  S
C2665      N2669   1.350       .  A
N2666      C2681   1.343       .  A
C2667      C2670   1.456       .  S
C2667      H2701   1.081       .  S
C2667      N2695   1.337       .  A
C2670      N2691   1.350       .  A
N2671      N2677   1.320       .  A
N2672      C2698   1.343       .  A
N2672      N2674   1.320       .  A
N2673      C2687   1.336       .  A
N2674      N2702   1.323       .  A
N2674     Co2692   2.081       .  S
H2675      C2698   1.081       .  S
H2676      C2693   1.081       .  S
N2678     Co2692   2.078       .  S
N2679      N2691   1.326       .  A
N2679      N2695   1.320       .  A
N2679     Co2688   2.086       .  S
C2680      C2694   1.460       .  S
C2680      N2684   1.348       .  A
C2681      C2700   1.459       .  S
C2681      H2685   1.081       .  S
N2682      C2693   1.337       .  A
N2682     Co2692   2.077       .  S
C2686      C2698   1.461       .  S
C2686      N2702   1.349       .  A
Co2688    Cl2699   2.450       .  S
N2689      C2700   1.349       .  A
C2703      C2740   1.458       .  S
C2703      N2721   1.350       .  A
N2704      N2726   1.320       .  A
C2705      C2743   1.460       .  S
C2705      H2750   1.081       .  S
C2705      N2730   1.343       .  A
H2706      C2747   1.082       .  S
C2707      C2711   1.456       .  S
C2707      H2736   1.081       .  S
Co2708     N2726   2.080   1_655  S
Co2708     N2716   2.078   1_655  S
Co2708     N2748   2.075       .  S
Co2708     N2724   2.081       .  S
N2709      N2716   1.320       .  A
Co2710     N2713   2.087   1_655  S
Co2710     N2717   2.086       .  S
Co2710    Cl2752   2.449       .  S
C2711      N2749   1.350       .  A
N2712      N2719   1.320       .  A
N2712     Co2745   2.080   1_455  S
N2713      N2731   1.320       .  A
N2714      C2743   1.349       .  A
N2714      N2724   1.323       .  A
H2715      C2740   1.081       .  S
N2717      N2735   1.320       .  A
N2717      N2722   1.326       .  A
C2718      C2746   1.457       .  S
C2718      N2722   1.349       .  A
N2719     Co2741   2.088   1_456  S
C2720      C2723   1.455       .  S
C2720      H2754   1.081       .  S
C2720      N2748   1.336       .  A
C2723      N2744   1.351       .  A
N2724      N2730   1.320       .  A
N2725      C2751   1.343       .  A
N2725      N2727   1.320       .  A
N2725     Co2741   2.090   1_556  S
N2727      N2755   1.323       .  A
N2727     Co2745   2.080       .  S
H2728      C2751   1.082       .  S
H2729      C2746   1.081       .  S
N2731     Co2745   2.077   1_455  S
N2732      N2744   1.327       .  A
N2732      N2748   1.320       .  A
C2733      C2747   1.460       .  S
C2733      N2737   1.348       .  A
C2734      C2753   1.460       .  S
C2734      H2738   1.081       .  S
N2735      C2746   1.337       .  A
N2735     Co2745   2.077       .  S
C2739      C2751   1.461       .  S
C2739      N2755   1.348       .  A
Co2741    Cl2752   2.449   1_554  S
N2742      C2753   1.349       .  A
Co2745    Cl2752   2.452       .  S
C2756      C2793   1.456       .  S
C2756      N2774   1.351       .  A
N2757      N2774   1.327       .  A
N2757      N2779   1.321       .  A
C2758      C2796   1.461       .  S
C2758      H2803   1.081       .  S
C2758      N2783   1.343       .  A
H2759      C2800   1.082       .  S
C2760      C2764   1.457       .  S
C2760      H2789   1.082       .  S
C2760      N2784   1.337       .  A
Co2761     N2779   2.077       .  S
Co2761     N2769   2.080       .  S
N2762      C2800   1.343       .  A
N2762      N2769   1.320       .  A
Co2763     N2766   2.086       .  S
Co2763    Cl2805   2.450       .  S
C2764      N2802   1.349       .  A
N2765      N2772   1.320       .  A
N2765      N2795   1.324       .  A
N2765     Co2798   2.082       .  S
N2766      N2784   1.320       .  A
N2766      N2802   1.326       .  A
N2767      C2796   1.348       .  A
N2767      N2777   1.323       .  A
H2768      C2793   1.082       .  S
N2769      N2790   1.322       .  A
N2770      N2788   1.320       .  A
N2770      N2775   1.326       .  A
C2771      C2799   1.457       .  S
C2771      N2775   1.349       .  A
N2772      C2787   1.343       .  A
N2772     Co2794   2.091       .  S
C2773      C2776   1.455       .  S
C2773      H2807   1.081       .  S
C2773      N2801   1.336       .  A
C2776      N2797   1.351       .  A
N2777      N2783   1.320       .  A
N2778      C2804   1.344       .  A
N2778      N2780   1.320       .  A
N2779      C2793   1.338       .  A
N2780      N2808   1.323       .  A
H2781      C2804   1.082       .  S
H2782      C2799   1.082       .  S
N2784     Co2798   2.078       .  S
N2785      N2797   1.327       .  A
N2785      N2801   1.321       .  A
C2786      C2800   1.459       .  S
C2786      N2790   1.349       .  A
C2787      C2806   1.461       .  S
C2787      H2791   1.081       .  S
N2788      C2799   1.337       .  A
C2792      C2804   1.462       .  S
C2792      N2808   1.348       .  A
Co2794    Cl2805   2.450       .  S
N2795      C2806   1.349       .  A
Co2798    Cl2805   2.453       .  S
C2809      C2810   1.402       .  A
C2809      C2814   1.403       .  A
C2809      H2816   1.085       .  S
C2810      C2811   1.411       .  A
C2811      C2812   1.404       .  A
C2811      C2818   1.506       .  S
C2812      C2813   1.403       .  A
C2812      H2817   1.084       .  S
C2813      C2814   1.412       .  A
C2814      C2815   1.507       .  S
C2815      H2819   1.111       .  S
C2815      H2820   1.110       .  S
C2815      H2821   1.111       .  S
C2818      H2822   1.111       .  S
C2818      H2823   1.110       .  S
C2818      H2824   1.111       .  S
C2825      C2826   1.402       .  A
C2825      C2830   1.402       .  A
C2825      H2832   1.084       .  S
C2826      C2827   1.415       .  A
C2827      C2828   1.404       .  A
C2827      C2834   1.508       .  S
C2828      C2829   1.402       .  A
C2828      H2833   1.084       .  S
C2829      C2830   1.414       .  A
C2830      C2831   1.508       .  S
C2831      H2835   1.111       .  S
C2831      H2836   1.110       .  S
C2831      H2837   1.109       .  S
C2834      H2838   1.109       .  S
C2834      H2839   1.110       .  S
C2834      H2840   1.111       .  S
C2841      C2842   1.402       .  A
C2841      C2846   1.404       .  A
C2841      H2848   1.084       .  S
C2842      C2843   1.414       .  A
C2843      C2844   1.402       .  A
C2843      C2850   1.508       .  S
C2844      C2845   1.402       .  A
C2844      H2849   1.085       .  S
C2845      C2846   1.414       .  A
C2846      C2847   1.507       .  S
C2847      H2851   1.111       .  S
C2847      H2852   1.109       .  S
C2847      H2853   1.110       .  S
C2850      H2854   1.110       .  S
C2850      H2855   1.109       .  S
C2850      H2856   1.111       .  S
C2857      C2858   1.405       .  A
C2857      C2862   1.403       .  A
C2857      H2864   1.085       .  S
C2858      C2859   1.416       .  A
C2859      C2860   1.402       .  A
C2859      C2866   1.509       .  S
C2860      C2861   1.404       .  A
C2860      H2865   1.085       .  S
C2861      C2862   1.415       .  A
C2862      C2863   1.509       .  S
C2863      H2867   1.111       .  S
C2863      H2868   1.108       .  S
C2863      H2869   1.109       .  S
C2866      H2870   1.110       .  S
C2866      H2871   1.108       .  S
C2866      H2872   1.111       .  S
C2873      C2874   1.403       .  A
C2873      C2878   1.402       .  A
C2873      H2880   1.083       .  S
C2874      C2875   1.416       .  A
C2875      C2876   1.404       .  A
C2875      C2882   1.509       .  S
C2876      C2877   1.404       .  A
C2876      H2881   1.083       .  S
C2877      C2878   1.414       .  A
C2878      C2879   1.506       .  S
C2879      H2883   1.109       .  S
C2879      H2884   1.107       .  S
C2879      H2885   1.110       .  S
C2882      H2886   1.110       .  S
C2882      H2887   1.107       .  S
C2882      H2888   1.111       .  S
C2889      C2890   1.401       .  A
C2889      C2894   1.403       .  A
C2889      H2896   1.084       .  S
C2890      C2891   1.410       .  A
C2891      C2892   1.404       .  A
C2891      C2898   1.504       .  S
C2892      C2893   1.402       .  A
C2892      H2897   1.084       .  S
C2893      C2894   1.413       .  A
C2894      C2895   1.507       .  S
C2895      H2899   1.111       .  S
C2895      H2900   1.110       .  S
C2895      H2901   1.110       .  S
C2898      H2902   1.110       .  S
C2898      H2903   1.110       .  S
C2898      H2904   1.110       .  S
