geometry optimzed in LAMMPS
_audit_creation_date              2020-11-30 
_audit_creation_method            'lammps2cif' 
_symmetry_space_group_name_H-M    'P1' 
_symmetry_Int_Tables_number       1 
_symmetry_cell_setting            triclinic 
loop_ 
_symmetry_equiv_pos_as_xyz 
  x,y,z 
_cell_length_a                    29.504464475629682 
_cell_length_b                    29.775573309336707 
_cell_length_c                    29.83326473931172 
_cell_angle_alpha                 89.75641645305296 
_cell_angle_beta                  90.08019263288655 
_cell_angle_gamma                 90.03951897599106 
loop_ 
_atom_site_label 
_atom_site_type_symbol 
_atom_site_fract_x 
_atom_site_fract_y 
_atom_site_fract_z 
_atom_site_charge 
C1          C  0.36758083  0.64274024  0.63702278    -0.02190
C2          C  0.40083347  0.61089643  0.39956734     0.42750
N3          N  0.45028424  0.58933737  0.44993059     0.01640
C4          C  0.57083808  0.38498046  0.44477384    -0.06240
H5          H  0.41316024  0.36152434  0.47088216     0.07130
C6          C  0.41689515  0.45228815  0.62196175    -0.06590
Co7        Co  0.49827578  0.50301884  0.42394285     0.74180
N8          N  0.44770587  0.42289748  0.45965411    -0.25760
Co9        Co  0.49770766  0.42340018  0.51085848     0.74070
C10         C  0.39841900  0.40710156  0.61239317     0.42850
N11         N  0.44858922  0.56330648  0.58631825     0.01260
N12         N  0.44917377  0.42614570  0.56267610     0.01360
N13         N  0.57137381  0.43779926  0.39092523    -0.46610
H14         H  0.41245827  0.54536181  0.35971762     0.07120
N15         N  0.44745561  0.45275376  0.42668384     0.01650
N16         N  0.54852952  0.42671233  0.56202931     0.01390
C17         C  0.60351112  0.41133666  0.60964356     0.42990
N18         N  0.44871043  0.59240381  0.55272523    -0.25220
C19         C  0.58463160  0.55980408  0.39537478    -0.06140
N20         N  0.42234273  0.62262235  0.43819853    -0.46330
N21         N  0.57914656  0.39581025  0.57380261    -0.46550
C22         C  0.60465381  0.60366967  0.40827145     0.42770
N23         N  0.54583760  0.45028468  0.42540386     0.01640
N24         N  0.54804762  0.59078350  0.55324962    -0.25240
N25         N  0.44985044  0.55599945  0.42088300    -0.25740
N26         N  0.54715177  0.56219675  0.58700885     0.01270
H27         H  0.58892113  0.64815179  0.53843011     0.07160
H28         H  0.59064665  0.47949109  0.64511253     0.07200
N29         N  0.54504447  0.41987276  0.45775035    -0.25780
N30         N  0.44870130  0.46025306  0.59077446    -0.25400
N31         N  0.54974958  0.58555672  0.45336843     0.01640
C32         C  0.39857634  0.40193451  0.40501380     0.43040
C33         C  0.41800839  0.62462675  0.56146114    -0.06650
N34         N  0.54898687  0.46136443  0.58954306    -0.25400
H35         H  0.40975289  0.47512389  0.64888090     0.07180
N36         N  0.41912186  0.44138526  0.39389876    -0.46620
H37         H  0.41221274  0.65331516  0.54009687     0.07170
C38         C  0.59991044  0.60942641  0.60532958     0.42870
C39         C  0.41918345  0.56593965  0.38875181    -0.06150
Co40       Co  0.49894165  0.58978804  0.50214379     0.73820
N41         N  0.42032787  0.57534999  0.61887565    -0.46340
C42         C  0.58836556  0.39628233  0.39949018     0.43140
N43         N  0.58066577  0.61682485  0.44464204    -0.46330
Co44       Co  0.49809026  0.51165511  0.58877606     0.73890
C45         C  0.58329867  0.45592575  0.61877368    -0.06650
C46         C  0.41769311  0.39053060  0.44975149    -0.06220
N47         N  0.55034886  0.55223722  0.42426031    -0.25740
N48         N  0.42035068  0.39381884  0.57460427    -0.46510
H49         H  0.57419711  0.35400977  0.46344940     0.07140
C50         C  0.58102273  0.62077064  0.56085694    -0.06630
Cl51       Cl  0.49777022  0.50675302  0.50634908    -0.49630
C52         C  0.39918449  0.61403300  0.60617135     0.42900
H53         H  0.59149562  0.53987885  0.36591629     0.07110
N54         N  0.57670890  0.57251997  0.61903855    -0.46340
C55         C  0.63057136  0.37984779  0.64290824    -0.02190
C56         C  0.36970399  0.37282699  0.37143125    -0.02190
C57         C  0.63022729  0.63679077  0.37655856    -0.02190
C58         C  0.36769046  0.64094426  0.37079319    -0.02190
C59         C  0.62260047  0.36945372  0.36890336    -0.02190
C60         C  0.36588454  0.37661318  0.64095541    -0.02190
C61         C  0.63197892  0.63788459  0.63512447    -0.02190
C62         C  0.25545897  0.23408120  0.00280235     0.00860
C63         C  0.22416689  0.26719614  0.00561665     0.00860
C64         C  0.23743911  0.00368076  0.27180790     0.00860
C65         C  0.27185266  0.00574630  0.24144118     0.00860
C66         C  0.00050385  0.24660611  0.28183382     0.00860
C67         C  0.00076511  0.27887671  0.24934004     0.00860
C68         C  0.49609084  0.24827947  0.22017624     0.00860
C69         C  0.49708182  0.27368563  0.25833750     0.00860
C70         C  0.26202497  0.28012950  0.50463484     0.00860
C71         C  0.22773421  0.24902863  0.50645439     0.00860
C72         C  0.25297066  0.50808264  0.28647106     0.00860
C73         C  0.22493974  0.50643719  0.24960547     0.00860
C74         C  0.27824854  0.76512421  0.00236959     0.00860
C75         C  0.24498361  0.73299945  0.00431272     0.00860
C76         C  0.76000734  0.28077191  0.01196066     0.00860
C77         C  0.73525423  0.24185850  0.01199701     0.00860
C78         C  0.99852301  0.28090916  0.76467021     0.00860
C79         C  0.99863213  0.24665526  0.73442427     0.00860
C80         C  0.75250898  0.50455838  0.23296530     0.00860
C81         C  0.72187571  0.50541544  0.26700211     0.00860
C82         C  0.23314537  0.50890068  0.77212313     0.00860
C83         C  0.26376752  0.50902735  0.73825468     0.00860
C84         C  0.87220854  0.64047945  0.87576185    -0.02190
C85         C  0.89972803  0.60515256  0.90398168     0.42750
N86         N  0.94890743  0.58189529  0.95356159     0.01640
C87         C  0.08283897  0.39014446  0.94913950    -0.06240
H88         H  0.91417326  0.36023751  0.97388392     0.07130
C89         C  0.93726299  0.44039420  0.13146940    -0.06590
Co90       Co  0.00252237  0.50160008  0.92445584     0.74180
N91         N  0.95375614  0.42020083  0.96141221    -0.25760
Co92       Co  0.00373617  0.42276175  0.01202836     0.74070
C93         C  0.90724877  0.40434971  0.11549400     0.42850
N94         N  0.95258775  0.55713272  0.08813941     0.01260
N95         N  0.95427208  0.42530833  0.06326052     0.01360
N96         N  0.08302507  0.44432577  0.89642333    -0.46610
H97         H  0.91787533  0.54431667  0.85874131     0.07120
N98         N  0.95532535  0.44845183  0.92713490     0.01650
N99         N  0.05548226  0.42631199  0.06284820     0.01390
C100        C  0.10833818  0.40684640  0.11116348     0.42990
N101        N  0.95089218  0.58577770  0.05417377    -0.25220
C102        C  0.07958734  0.56478063  0.88881818    -0.06140
N103        N  0.91875993  0.61347489  0.94436866    -0.46330
N104        N  0.08463888  0.39402410  0.07401617    -0.46550
C105        C  0.09668556  0.60974541  0.89998349     0.42770
N106        N  0.05345417  0.45318811  0.92854058     0.01640
N107        N  0.05027771  0.59154874  0.05169811    -0.25240
N108        N  0.95127739  0.55120460  0.92202401    -0.25740
N109        N  0.05081666  0.56355714  0.08602535     0.01270
H110        H  0.08777001  0.65098555  0.03573021     0.07160
H111        H  0.09481063  0.47099711  0.15223274     0.07200
N112        N  0.05261216  0.42197783  0.96016143    -0.25780
N113        N  0.96065624  0.45446709  0.09578631    -0.25400
N114        N  0.04770832  0.58799676  0.94988211     0.01640
C115        C  0.90355350  0.40030852  0.90823877     0.43040
C116        C  0.91658254  0.61439863  0.06113582    -0.06650
N117        N  0.05707707  0.46014261  0.09139106    -0.25400
H118        H  0.93968128  0.45517499  0.16445870     0.07180
N119        N  0.92749411  0.43668574  0.89427720    -0.46620
H120        H  0.90822699  0.64243717  0.03954399     0.07170
C121        C  0.10078510  0.61472444  0.10388566     0.42870
C122        C  0.92167753  0.56271145  0.88946653    -0.06150
Co123      Co  0.99953237  0.58708075  0.00239339     0.73820
N124        N  0.92145921  0.56608831  0.11924082    -0.46340
C125        C  0.10358706  0.40495306  0.90645892     0.43140
N126        N  0.07437619  0.62202523  0.93786997    -0.46330
Co127      Co  0.00559655  0.50902504  0.09081469     0.73890
C128        C  0.08915866  0.45123493  0.12248425    -0.06650
C129        C  0.92139312  0.38920432  0.95309671    -0.06220
N130        N  0.04950300  0.55445006  0.92116010    -0.25740
N131        N  0.92250706  0.39496320  0.07343972    -0.46510
H132        H  0.08770668  0.35904602  0.96735300     0.07140
C133        C  0.08163634  0.62374228  0.05879697    -0.06630
Cl134      Cl  0.00306338  0.50502099  0.00748783    -0.49630
C135        C  0.89621849  0.60137889  0.10421557     0.42900
H136        H  0.08607710  0.54485430  0.85930285     0.07110
N137        N  0.07872547  0.57709488  0.11792094    -0.46340
C138        C  0.87141017  0.37706584  0.14324766    -0.02190
C139        C  0.13082118  0.37570502  0.87283640    -0.02190
C140        C  0.13016633  0.64001072  0.87310872    -0.02190
C141        C  0.86863316  0.37528921  0.87840758    -0.02190
C142        C  0.86393525  0.63045407  0.13316900    -0.02190
C143        C  0.73448017  0.50833447  0.74387347     0.00860
C144        C  0.75958902  0.51153248  0.78295253     0.00860
C145        C  0.13373129  0.64225308  0.13486976    -0.02190
C146        C  0.13674280  0.37426886  0.14218557    -0.02190
C147        C  0.27278484  0.00680131  0.76559842     0.00860
C148        C  0.24210012  0.00525681  0.73152658     0.00860
C149        C  0.49851964  0.74603131  0.27535007     0.00860
C150        C  0.50025685  0.77133182  0.23633588     0.00860
C151        C  0.49650840  0.28106499  0.74755044     0.00860
C152        C  0.49817461  0.25297474  0.78374614     0.00860
C153        C  0.63106324  0.14261630  0.87554421    -0.02190
C154        C  0.39363822  0.10818775  0.90571386     0.42750
N155        N  0.44355289  0.05720439  0.92402803     0.01640
C156        C  0.45043830  0.92062268  0.11482107    -0.06240
H157        H  0.45727206  0.08642097  0.15245510     0.07130
C158        C  0.61143976  0.09470535  0.05710648    -0.06590
Co159      Co  0.41726567  0.00492025  0.00707984     0.74180
N160        N  0.45000563  0.05229050  0.08915295    -0.25760
Co161      Co  0.50455127  0.00656788  0.08652900     0.74070
C162        C  0.60135092  0.11200490  0.10224980     0.42850
N163        N  0.57999463  0.05989754  0.94994514     0.01260
N164        N  0.55390449  0.05860264  0.08439955     0.01360
N165        N  0.39100082  0.92429793  0.06765286    -0.46610
H166        H  0.35418435  0.09321945  0.97157954     0.07120
N167        N  0.41759149  0.05270895  0.05849577     0.01650
N168        N  0.55787980  0.96054265  0.08469775     0.01390
C169        C  0.60787004  0.91155924  0.10577895     0.42990
N170        N  0.54607440  0.06064662  0.92113369    -0.25220
C171        C  0.38863557  0.92321000  0.94619143    -0.06140
N172        N  0.43260319  0.08747956  0.89295207    -0.46330
N173        N  0.56786566  0.93085920  0.11658784    -0.46550
C174        C  0.40214567  0.90495895  0.90210830     0.42770
N175        N  0.42210931  0.95481452  0.05720451     0.01640
N176        N  0.54983641  0.96293992  0.92020343    -0.25240
N177        N  0.41389342  0.05552789  0.95701496    -0.25740
N178        N  0.58266771  0.96268579  0.95040714     0.01270
H179        H  0.53894760  0.92559748  0.85975218     0.07160
H180        H  0.65341285  0.92921131  0.04509667     0.07200
N181        N  0.45634249  0.95459131  0.08570627    -0.25780
N182        N  0.58227191  0.06088284  0.05032624    -0.25400
N183        N  0.44748510  0.95890859  0.92233413     0.01640
C184        C  0.39538863  0.10131779  0.10732855     0.43040
C185        C  0.55395903  0.09319227  0.89079168    -0.06650
N186        N  0.58891389  0.96282385  0.05294554    -0.25400
H187        H  0.63865949  0.10276643  0.03441559     0.07180
N188        N  0.38434611  0.08117191  0.06817494    -0.46620
H189        H  0.53239287  0.09967429  0.86229096     0.07170
C190        C  0.60341587  0.91265172  0.90223505     0.42870
C191        C  0.38220882  0.08712859  0.94936773    -0.06150
Co192      Co  0.49663722  0.01003997  0.92138181     0.73820
N193        N  0.61229825  0.08899752  0.93943460    -0.46340
C194        C  0.40574524  0.90075266  0.10405582     0.43140
N195        N  0.43865072  0.92978756  0.88978232    -0.46330
Co196      Co  0.58394182  0.01141378  0.00083307     0.73890
C197        C  0.62237148  0.93381593  0.06376538    -0.06650
C198        C  0.43843578  0.08100431  0.12181481    -0.06220
N199        N  0.41794882  0.95652815  0.95540939    -0.25740
N200        N  0.56483755  0.08760339  0.11641120    -0.46510
H201        H  0.47330708  0.91379199  0.14219451     0.07140
C202        C  0.55958832  0.93232320  0.88891900    -0.06630
Cl203      Cl  0.50057080  0.00822429  0.00399205    -0.49630
C204        C  0.59863628  0.11216441  0.90263364     0.42900
H205        H  0.35918914  0.91490491  0.96615396     0.07110
N206        N  0.61524206  0.93358040  0.94073247    -0.46340
C207        C  0.63205278  0.87375664  0.13287901    -0.02190
C208        C  0.37263072  0.87476050  0.87076572    -0.02190
C209        C  0.36411086  0.13874402  0.87406286    -0.02190
C210        C  0.63264039  0.87906925  0.87533191    -0.02190
C211        C  0.37225185  0.87503187  0.13536324    -0.02190
C212        C  0.50510177  0.76190000  0.78186282     0.00860
C213        C  0.50336600  0.72453635  0.75478559     0.00860
C214        C  0.36628352  0.13616188  0.13264920    -0.02190
C215        C  0.63389270  0.13607900  0.13566117    -0.02190
C216        C  0.99701037  0.72910560  0.24187920     0.00860
C217        C  0.99644448  0.76075251  0.27470469     0.00860
C218        C  0.74192471  0.99936318  0.23193402     0.00860
C219        C  0.77479756  0.00216932  0.26465365     0.00860
C220        C  0.71835933  0.26889475  0.50985975     0.00860
C221        C  0.75194603  0.23661141  0.50690763     0.00860
C222        C  0.26764832  0.74663979  0.50301202     0.00860
C223        C  0.22606990  0.76767359  0.50225347     0.00860
C224        C  0.86199950  0.14014341  0.37541970    -0.02190
C225        C  0.89270222  0.10978208  0.40606345     0.42750
N226        N  0.94408372  0.05956596  0.42311614     0.01640
C227        C  0.94385507  0.92568880  0.61750014    -0.06240
H228        H  0.96259082  0.09101779  0.64947083     0.07130
C229        C  0.11427871  0.09222753  0.55858948    -0.06590
Co230      Co  0.91770554  0.00767846  0.50639635     0.74180
N231        N  0.95244857  0.05486345  0.58775863    -0.25760
Co232      Co  0.00460740  0.00663625  0.58529446     0.74070
C233        C  0.10101666  0.11155468  0.60252432     0.42850
N234        N  0.08168994  0.05833027  0.44741669     0.01260
N235        N  0.05537701  0.05684793  0.58296528     0.01360
N236        N  0.88667848  0.92978952  0.56795459    -0.46610
H237        H  0.85531802  0.09348815  0.47302544     0.07120
N238        N  0.91953099  0.05567512  0.55768973     0.01650
N239        N  0.05624423  0.95820841  0.58274215     0.01390
C240        C  0.10476935  0.90669301  0.60320572     0.42990
N241        N  0.04767619  0.06089129  0.41856843    -0.25220
C242        C  0.88794954  0.92621960  0.44697074    -0.06140
N243        N  0.93161505  0.08946590  0.39220137    -0.46330
N244        N  0.06629156  0.92867000  0.61470045    -0.46550
C245        C  0.90195627  0.90519767  0.40453973     0.42770
N246        N  0.92000185  0.95776536  0.55686928     0.01640
N247        N  0.05070887  0.96526104  0.41569332    -0.25240
N248        N  0.91523468  0.05783462  0.45675587    -0.25740
N249        N  0.08030978  0.95887520  0.44833378     0.01270
H250        H  0.04896994  0.94290329  0.34769171     0.07160
H251        H  0.14669027  0.91958464  0.53869886     0.07200
N252        N  0.95347213  0.95698750  0.58624308    -0.25780
N253        N  0.08510707  0.05826187  0.54997718    -0.25400
N254        N  0.94681491  0.96084796  0.42114321     0.01640
C255        C  0.90060086  0.10697233  0.60518120     0.43040
C256        C  0.05750614  0.09203385  0.38705406    -0.06650
N257        N  0.08627439  0.95851146  0.55007497    -0.25400
H258        H  0.14292777  0.10102988  0.53775396     0.07180
N259        N  0.88751880  0.08548763  0.56733836    -0.46620
H260        H  0.03768784  0.09858338  0.35721210     0.07170
C261        C  0.09959456  0.91042198  0.39743121     0.42870
C262        C  0.88288186  0.08872660  0.44997101    -0.06150
Co263      Co  0.99711237  0.01192877  0.41906965     0.73820
N264        N  0.11541636  0.08556271  0.43608738    -0.46340
C265        C  0.89848935  0.90773250  0.60612995     0.43140
N266        N  0.93776200  0.93006248  0.39003619    -0.46330
Co267      Co  0.08405256  0.00833448  0.49894115     0.73890
C268        C  0.11747229  0.92661528  0.55931102    -0.06650
C269        C  0.94300441  0.08538401  0.61943601    -0.06220
N270        N  0.91754920  0.95953802  0.45467133    -0.25740
N271        N  0.06427531  0.08685696  0.61458520    -0.46510
H272        H  0.96472510  0.91867026  0.64650023     0.07140
C273        C  0.06380547  0.94064056  0.38078980    -0.06630
Cl274      Cl  0.00091918  0.00865549  0.50243383    -0.49630
C275        C  0.10274799  0.10879718  0.39876315     0.42900
H276        H  0.85894527  0.91862597  0.46780056     0.07110
N277        N  0.11011009  0.92650381  0.43886041    -0.46340
C278        C  0.87325306  0.87220191  0.37581478    -0.02190
C279        C  0.12692900  0.87549112  0.36949224    -0.02190
C280        C  0.13371994  0.87623525  0.63548525    -0.02190
C281        C  0.87147209  0.14022527  0.63196472    -0.02190
C282        C  0.86586120  0.87902992  0.63638746    -0.02190
C283        C  0.72724008  0.74783183  0.50386397     0.00860
C284        C  0.76334141  0.77608228  0.50592751     0.00860
C285        C  0.13592077  0.13836993  0.37145772    -0.02190
C286        C  0.13126801  0.13861466  0.63641083    -0.02190
C287        C  0.99935644  0.77418374  0.73514738     0.00860
C288        C  0.99941546  0.74352050  0.76908587     0.00860
C289        C  0.77028017  0.01187587  0.74243349     0.00860
C290        C  0.73620913  0.01194371  0.77316186     0.00860
C291        C  0.72760743  0.76731626  0.00499356     0.00860
C292        C  0.76747019  0.74335437  0.00531050     0.00860
C293        C  0.89565171  0.84596629  0.66428337    -0.05170
C294        C  0.92885156  0.82112554  0.64132285    -0.32600
C295        C  0.95875305  0.79301807  0.66408225     0.36650
C296        C  0.95811899  0.79072702  0.71131322    -0.05530
C297        C  0.92276101  0.81166384  0.73430203    -0.32500
C298        C  0.88993095  0.83638824  0.71096030     0.36550
H299        H  0.93191393  0.82396522  0.60522962     0.16920
O300        O  0.99072054  0.77018884  0.63988755    -0.60000
H301        H  0.92082156  0.80952578  0.77047839     0.16940
O302        O  0.85267371  0.85034850  0.73445480    -0.60090
H303        H  0.82896249  0.82758763  0.72820437     0.43930
H304        H  0.97867622  0.73922500  0.63712155     0.43890
C305        C  0.83934980  0.91062663  0.66834190    -0.05170
C306        C  0.79127530  0.90939872  0.67169566    -0.32600
C307        C  0.76746956  0.94018837  0.69791520     0.36650
C308        C  0.79135075  0.97026095  0.72510631    -0.05530
C309        C  0.83854984  0.96691172  0.72750320    -0.32500
C310        C  0.86256295  0.93885868  0.69896669     0.36550
H311        H  0.77101829  0.88531773  0.65366302     0.16920
O312        O  0.72101464  0.94127563  0.69582197    -0.60000
H313        H  0.85754892  0.98793353  0.75024605     0.16940
O314        O  0.90882813  0.93844494  0.70263283    -0.60090
H315        H  0.91567715  0.92463839  0.73219491     0.43930
H316        H  0.71343736  0.95194723  0.66519732     0.43890
C317        C  0.83224329  0.85164588  0.60634226    -0.05170
C318        C  0.82746730  0.80452267  0.61155515    -0.32600
C319        C  0.80057169  0.77892243  0.58277720     0.36650
C320        C  0.77581878  0.79996560  0.54834240    -0.05530
C321        C  0.77467508  0.84699354  0.54710599    -0.32500
C322        C  0.80261588  0.87284885  0.57499525     0.36550
H323        H  0.84579971  0.78598605  0.63690754     0.16920
O324        O  0.80455787  0.73321966  0.58460054    -0.60000
H325        H  0.75460654  0.86382115  0.52162368     0.16940
O326        O  0.79839921  0.91881888  0.57348477    -0.60090
H327        H  0.80220554  0.92778835  0.54162389     0.43930
H328        H  0.79086299  0.72416095  0.61362954     0.43890
C329        C  0.78842974  0.05323677  0.72041355    -0.05170
C330        C  0.82933383  0.07126797  0.73609920    -0.32600
C331        C  0.85806556  0.09611584  0.70766718     0.36650
C332        C  0.84324423  0.10922469  0.66409173    -0.05530
C333        C  0.80301348  0.08892585  0.64819945    -0.32500
C334        C  0.77560345  0.06222439  0.67587918     0.36550
H335        H  0.84159191  0.06162556  0.76900264     0.16920
O336        O  0.90214052  0.10319783  0.72093315    -0.60000
H337        H  0.79265857  0.09350782  0.61364585     0.16940
O338        O  0.73722962  0.04295811  0.65838151    -0.60090
H339        H  0.74810700  0.02062182  0.63629146     0.43930
H340        H  0.90076534  0.11679807  0.75120989     0.43890
C341        C  0.10213887  0.84893449  0.66779588    -0.05170
C342        C  0.10682362  0.80158213  0.67302207    -0.32600
C343        C  0.07571405  0.77615856  0.69748913     0.36650
C344        C  0.04105574  0.79783763  0.72082471    -0.05530
C345        C  0.04016576  0.84482617  0.72186070    -0.32500
C346        C  0.06994832  0.87039685  0.69601300     0.36550
H347        H  0.13381656  0.78298440  0.65728828     0.16920
O348        O  0.07804431  0.73017479  0.69609155    -0.60000
H349        H  0.01418584  0.86195783  0.74094187     0.16940
O350        O  0.06803672  0.91634831  0.69969594    -0.60090
H351        H  0.07493871  0.92338059  0.73146486     0.43930
H352        H  0.06381784  0.72151982  0.66726512     0.43890
C353        C  0.84308688  0.84256247  0.40625653    -0.05170
C354        C  0.86138160  0.82637817  0.44668841    -0.32600
C355        C  0.83797329  0.79691010  0.47396482     0.36650
C356        C  0.79154161  0.78955753  0.46654269    -0.05530
C357        C  0.77304904  0.80279816  0.42507737    -0.32500
C358        C  0.80005480  0.82534662  0.39326858     0.36550
H359        H  0.89401981  0.83696443  0.45863087     0.16920
O360        O  0.86045674  0.77633872  0.50884095    -0.60000
H361        H  0.73782416  0.79678264  0.41723285     0.16940
O362        O  0.78426170  0.83050366  0.35017631    -0.60090
H363        H  0.75413124  0.84507812  0.35245164     0.43930
H364        H  0.87450194  0.80064071  0.52682903     0.43890
C365        C  0.20535003  0.78607475  0.45986261    -0.05170
C366        C  0.15959792  0.77790052  0.44981395    -0.32600
C367        C  0.13376136  0.80911680  0.42550999     0.36650
C368        C  0.15544715  0.84350862  0.40061927    -0.05530
C369        C  0.20382612  0.84314299  0.40179176    -0.32500
C370        C  0.22774752  0.81875228  0.43429717     0.36550
H371        H  0.14307101  0.74809078  0.46191536     0.16920
O372        O  0.08739579  0.80489927  0.42541617    -0.60000
H373        H  0.22450527  0.86213161  0.37895203     0.16940
O374        O  0.27288714  0.82758264  0.44085060    -0.60090
H375        H  0.27386087  0.85026633  0.46508855     0.43930
H376        H  0.08075615  0.77659649  0.40923006     0.43890
C377        C  0.20418392  0.78444179  0.54452913    -0.05170
C378        C  0.22953405  0.80934396  0.57544153    -0.32600
C379        C  0.20796737  0.83358883  0.60921177     0.36650
C380        C  0.16055899  0.84272712  0.60585927    -0.05530
C381        C  0.13549903  0.81535775  0.57656722    -0.32500
C382        C  0.15683869  0.78265234  0.55099044     0.36550
H383        H  0.26613368  0.80998907  0.57396295     0.16920
O384        O  0.23365129  0.84657940  0.64520991    -0.60000
H385        H  0.09877897  0.81638803  0.57699669     0.16940
O386        O  0.13149414  0.74730749  0.53591323    -0.60090
H387        H  0.13008224  0.72586261  0.56138946     0.43930
H388        H  0.22719241  0.82406762  0.66895842     0.43890
C389        C  0.76663968  0.21414710  0.46434526    -0.05170
C390        C  0.79180556  0.23788798  0.43225656    -0.32600
C391        C  0.82003679  0.21551539  0.40158287     0.36650
C392        C  0.82678597  0.16781847  0.40443111    -0.05530
C393        C  0.79760871  0.14476486  0.43434496    -0.32500
C394        C  0.76803975  0.16700655  0.46335616     0.36550
H395        H  0.79126941  0.27427164  0.43234816     0.16920
O396        O  0.84019543  0.24142459  0.36923087    -0.60000
H397        H  0.79635499  0.10849102  0.43438720     0.16940
O398        O  0.74221498  0.14230260  0.49273528    -0.60090
H399        H  0.76375024  0.13040489  0.51543027     0.43930
H400        H  0.81878542  0.24116332  0.34357553     0.43890
C401        C  0.84069385  0.16978393  0.60121296    -0.05170
C402        C  0.79689581  0.18285375  0.61554797    -0.32600
C403        C  0.76650323  0.20428261  0.58632793     0.36650
C404        C  0.78215024  0.22283927  0.54565595    -0.05530
C405        C  0.82860229  0.21848783  0.53623482    -0.32500
C406        C  0.85636206  0.18918151  0.56053105     0.36550
H407        H  0.78429424  0.17312282  0.64818882     0.16920
O408        O  0.72146483  0.20310036  0.59666744    -0.60000
H409        H  0.84239757  0.23314689  0.50593274     0.16940
O410        O  0.89649533  0.17622096  0.54133765    -0.60090
H411        H  0.91142712  0.20379491  0.52973184     0.43930
H412        H  0.71037425  0.17401387  0.58481130     0.43890
C413        C  0.79435959  0.96207357  0.28756105    -0.05170
C414        C  0.77904676  0.95203765  0.33088499    -0.32600
C415        C  0.80454249  0.92507003  0.36015804     0.36650
C416        C  0.84494769  0.90398631  0.34514009    -0.05530
C417        C  0.86193550  0.91776553  0.30306038    -0.32500
C418        C  0.83666754  0.94513900  0.27397192     0.36550
H419        H  0.74858845  0.96786367  0.34337319     0.16920
O420        O  0.79141302  0.92214824  0.40426706    -0.60000
H421        H  0.89542856  0.90754104  0.29246431     0.16940
O422        O  0.85417839  0.95653695  0.23277599    -0.60090
H423        H  0.88552029  0.96743019  0.23804706     0.43930
H424        H  0.75984195  0.91066264  0.40416928     0.43890
C425        C  0.79262540  0.04456365  0.28441068    -0.05170
C426        C  0.83850803  0.05501378  0.27863775    -0.32600
C427        C  0.86158634  0.08258118  0.30911875     0.36650
C428        C  0.83725872  0.10773375  0.34184262    -0.05530
C429        C  0.78975333  0.10063883  0.34310889    -0.32500
C430        C  0.76919801  0.06567639  0.31940683     0.36550
H431        H  0.85775806  0.03873571  0.25263277     0.16920
O432        O  0.90772542  0.08657404  0.30464547    -0.60000
H433        H  0.76739442  0.12013172  0.36357035     0.16940
O434        O  0.72653842  0.05110640  0.33143108    -0.60090
H435        H  0.70711365  0.07812242  0.33437916     0.43930
H436        H  0.92020379  0.05608191  0.31006543     0.43890
C437        C  0.09535876  0.84464941  0.34022248    -0.05170
C438        C  0.11149150  0.80398312  0.32108028    -0.32600
C439        C  0.08093896  0.77385616  0.30011648     0.36650
C440        C  0.03728771  0.78938127  0.28700409    -0.05530
C441        C  0.02743941  0.83427066  0.29623091    -0.32500
C442        C  0.04915386  0.85406942  0.33242071     0.36550
H443        H  0.14593771  0.79309957  0.32729447     0.16920
O444        O  0.09332035  0.72978811  0.29585631    -0.60000
H445        H  0.99466567  0.84771200  0.28675737     0.16940
O446        O  0.02193795  0.86644467  0.36738953    -0.60090
H447        H  0.99731950  0.88494237  0.35433150     0.43930
H448        H  0.08008766  0.71435144  0.32229435     0.43890
C449        C  0.95430617  0.77262888  0.30060754    -0.05170
C450        C  0.96043280  0.77811114  0.34691028    -0.32600
C451        C  0.93738818  0.81172471  0.37047772     0.36650
C452        C  0.90194462  0.83659444  0.34965468    -0.05530
C453        C  0.88864055  0.82171078  0.30639260    -0.32500
C454        C  0.91635930  0.79335826  0.28071645     0.36550
H455        H  0.98921072  0.76216539  0.36309602     0.16920
O456        O  0.95373785  0.82319313  0.41192835    -0.60000
H457        H  0.85808277  0.83411372  0.29068954     0.16940
O458        O  0.90868432  0.79049898  0.23551909    -0.60090
H459        H  0.88135818  0.77133412  0.23236227     0.43930
H460        H  0.95421885  0.79510379  0.42998119     0.43890
C461        C  0.65936768  0.10062263  0.16424174    -0.05170
C462        C  0.67298705  0.06031893  0.14369355    -0.32600
C463        C  0.70593816  0.03245793  0.16224816     0.36650
C464        C  0.72093079  0.03884700  0.20673586    -0.05530
C465        C  0.70837638  0.07957477  0.22707730    -0.32500
C466        C  0.68079610  0.11128257  0.20529682     0.36550
H467        H  0.66146006  0.05137857  0.11069764     0.16920
O468        O  0.72597274  0.00110571  0.13509674    -0.60000
H469        H  0.71963718  0.08870608  0.25942041     0.16940
O470        O  0.67475687  0.15234535  0.22506701    -0.60090
H471        H  0.70473629  0.16738366  0.22367861     0.43930
H472        H  0.70106584  0.98403502  0.12062095     0.43890
C473        C  0.66205164  0.90687898  0.84134588    -0.05170
C474        C  0.71026554  0.90685899  0.84192061    -0.32600
C475        C  0.73552064  0.93958844  0.81873879     0.36650
C476        C  0.71355131  0.96993015  0.78999761    -0.05530
C477        C  0.66704530  0.96371460  0.78213826    -0.32500
C478        C  0.64132416  0.93368867  0.80773396     0.36550
H479        H  0.72927257  0.88290495  0.86148753     0.16920
O480        O  0.78141383  0.94236199  0.82547713    -0.60000
H481        H  0.64970335  0.98307764  0.75677999     0.16940
O482        O  0.59572981  0.93103871  0.79935008    -0.60090
H483        H  0.59284759  0.91454068  0.77066900     0.43930
H484        H  0.78511984  0.96007362  0.85331537     0.43890
C485        C  0.66292154  0.84949927  0.90691843    -0.05170
C486        C  0.66027983  0.80179522  0.90525914    -0.32600
C487        C  0.68348418  0.77448209  0.93502465     0.36650
C488        C  0.71479861  0.79329450  0.96466518    -0.05530
C489        C  0.72102250  0.83990143  0.96508060    -0.32500
C490        C  0.69506939  0.86810535  0.93734347     0.36550
H491        H  0.63865185  0.78382778  0.88246887     0.16920
O492        O  0.67170739  0.72981458  0.93887041    -0.60000
H493        H  0.74353581  0.85475235  0.98964711     0.16940
O494        O  0.70152166  0.91370960  0.94026927    -0.60090
H495        H  0.73407862  0.91921437  0.93400851     0.43930
H496        H  0.67428650  0.71665806  0.90847459     0.43890
C497        C  0.59952549  0.84718978  0.85045751    -0.05170
C498        C  0.61245153  0.82846771  0.80927683    -0.32600
C499        C  0.58745684  0.79433884  0.78893692     0.36650
C500        C  0.54608278  0.77915414  0.80787903    -0.05530
C501        C  0.53720630  0.79287233  0.85219334    -0.32500
C502        C  0.56276787  0.82617820  0.87323664     0.36550
H503        H  0.64411495  0.83811505  0.79368297     0.16920
O504        O  0.60765167  0.77358184  0.75382325    -0.60000
H505        H  0.50786463  0.77981950  0.86978880     0.16940
O506        O  0.55214923  0.83692975  0.91667569    -0.60090
H507        H  0.56739736  0.81393707  0.93551167     0.43930
H508        H  0.62687591  0.74977396  0.76739584     0.43890
C509        C  0.40283229  0.84498037  0.83966521    -0.05170
C510        C  0.39551199  0.79786903  0.83604125    -0.32600
C511        C  0.42667381  0.76975105  0.81506381     0.36650
C512        C  0.46343453  0.78853603  0.79199194    -0.05530
C513        C  0.46582037  0.83551149  0.78746930    -0.32500
C514        C  0.43614550  0.86364503  0.81084734     0.36550
H515        H  0.36654141  0.78160692  0.85110139     0.16920
O516        O  0.42344541  0.72419617  0.82149276    -0.60000
H517        H  0.49315588  0.85054744  0.76834424     0.16940
O518        O  0.43984476  0.90917676  0.80476676    -0.60090
H519        H  0.42731446  0.91535288  0.77451050     0.43930
H520        H  0.39582689  0.71477530  0.80500387     0.43890
C521        C  0.65458612  0.83999575  0.10022001    -0.05170
C522        C  0.68919602  0.81095695  0.11569089    -0.32600
C523        C  0.70628021  0.77625045  0.08924408     0.36650
C524        C  0.69421929  0.77409727  0.04371021    -0.05530
C525        C  0.65180760  0.79316057  0.03331234    -0.32500
C526        C  0.63259178  0.82630081  0.05996212     0.36550
H527        H  0.70173853  0.81296315  0.14945260     0.16920
O528        O  0.72193311  0.73897255  0.11131877    -0.60000
H529        H  0.63482477  0.78590455  0.00216102     0.16940
O530        O  0.59315408  0.84573738  0.04496594    -0.60090
H531        H  0.57072206  0.82104966  0.04209629     0.43930
H532        H  0.69517380  0.71917138  0.11536169     0.43890
C533        C  0.66436793  0.89913587  0.16556285    -0.05170
C534        C  0.71188492  0.90103082  0.15947813    -0.32600
C535        C  0.73993823  0.92701650  0.18747087     0.36650
C536        C  0.72052957  0.95510333  0.22011713    -0.05530
C537        C  0.67409904  0.95070613  0.22889695    -0.32500
C538        C  0.64612971  0.92389435  0.20196771     0.36550
H539        H  0.72766951  0.88560238  0.13079472     0.16920
O540        O  0.78483329  0.93138629  0.17669298    -0.60000
H541        H  0.65847963  0.97211091  0.25378503     0.16940
O542        O  0.60042669  0.92351405  0.21055176    -0.60090
H543        H  0.58935439  0.95386851  0.20218358     0.43930
H544        H  0.79877935  0.90217169  0.18486419     0.43890
C545        C  0.66192353  0.10908934  0.84789415    -0.05170
C546        C  0.70625561  0.09620485  0.86159517    -0.32600
C547        C  0.73385823  0.06887539  0.83457392     0.36650
C548        C  0.71808088  0.05417662  0.79263011    -0.05530
C549        C  0.67498404  0.06746666  0.77905380    -0.32500
C550        C  0.64487177  0.08399807  0.81114305     0.36550
H551        H  0.71898432  0.10453432  0.89448557     0.16920
O552        O  0.77473912  0.05414886  0.85079152    -0.60000
H553        H  0.66130380  0.05406278  0.74823774     0.16940
O554        O  0.60511502  0.06024635  0.81651867    -0.60090
H555        H  0.59222617  0.05455810  0.78628818     0.43930
H556        H  0.79675341  0.07786768  0.84230372     0.43890
C557        C  0.39620653  0.17145527  0.84827088    -0.05170
C558        C  0.42839516  0.19570036  0.87334562    -0.32600
C559        C  0.45793152  0.22629605  0.85300263     0.36650
C560        C  0.45802871  0.23184703  0.80598443    -0.05530
C561        C  0.42565458  0.20888750  0.78077174    -0.32500
C562        C  0.39360037  0.18115166  0.80121790     0.36550
H563        H  0.43002399  0.19152957  0.90941396     0.16920
O564        O  0.48724812  0.25041049  0.87937986    -0.60000
H565        H  0.42573669  0.21102381  0.74457167     0.16940
O566        O  0.36034260  0.16419896  0.77401675    -0.60090
H567        H  0.33920363  0.18952982  0.76854040     0.43930
H568        H  0.50788599  0.22798877  0.89324408     0.43890
C569        C  0.54072724  0.23074450  0.79676769    -0.05170
C570        C  0.57191051  0.25080414  0.82537525    -0.32600
C571        C  0.60478516  0.22474332  0.84739279     0.36650
C572        C  0.60424576  0.17632288  0.84404283    -0.05530
C573        C  0.57520214  0.15918539  0.81061306    -0.32500
C574        C  0.54519238  0.18546758  0.78653333     0.36550
H575        H  0.56968948  0.28648153  0.83204091     0.16920
O576        O  0.63564033  0.24795572  0.87255187    -0.60000
H577        H  0.57163284  0.12482781  0.80376097     0.16940
O578        O  0.51769939  0.16582187  0.75490379    -0.60090
H579        H  0.49700819  0.14560004  0.77173013     0.43930
H580        H  0.65908462  0.25819710  0.85100299     0.43890
C581        C  0.39698137  0.84649225  0.17202181    -0.05170
C582        C  0.42822932  0.86775498  0.20106496    -0.32600
C583        C  0.45834990  0.84312470  0.22712111     0.36650
C584        C  0.45799937  0.79623484  0.22454297    -0.05530
C585        C  0.42124803  0.77483667  0.20384982    -0.32500
C586        C  0.38861859  0.80012369  0.18103406     0.36550
H587        H  0.43168217  0.90366203  0.20232466     0.16920
O588        O  0.49173237  0.86510777  0.25041712    -0.60000
H589        H  0.41872811  0.73857708  0.20346658     0.16940
O590        O  0.34959308  0.77892138  0.16769898    -0.60090
H591        H  0.33357661  0.77044740  0.19569636     0.43930
H592        H  0.48117729  0.86539169  0.28195199     0.43890
C593        C  0.53865732  0.78294118  0.20397262    -0.05170
C594        C  0.58427537  0.78396814  0.21533018    -0.32600
C595        C  0.61383468  0.81574392  0.19625452     0.36650
C596        C  0.59911590  0.84330668  0.15977588    -0.05530
C597        C  0.55664066  0.83289057  0.14131534    -0.32500
C598        C  0.52789142  0.80159055  0.16138699     0.36550
H599        H  0.59835349  0.75812716  0.23576792     0.16920
O600        O  0.65622872  0.82053218  0.21477059    -0.60000
H601        H  0.54511932  0.84842838  0.11070705     0.16940
O602        O  0.49012351  0.78760434  0.13825230    -0.60090
H603        H  0.47438469  0.81508306  0.12760702     0.43930
H604        H  0.66984681  0.79007994  0.21606967     0.43890
C605        C  0.16660784  0.90604830  0.66304258    -0.05170
C606        C  0.16742185  0.90549975  0.71081599    -0.32600
C607        C  0.19351253  0.93619102  0.73494201     0.36650
C608        C  0.22501605  0.96283557  0.71227395    -0.05530
C609        C  0.23184891  0.95580666  0.66655761    -0.32500
C610        C  0.20042779  0.93204813  0.64131541     0.36550
H611        H  0.14706678  0.88277781  0.73049726     0.16920
O612        O  0.18758019  0.94021787  0.78034749    -0.60000
H613        H  0.25971015  0.97176873  0.64934963     0.16940
O614        O  0.20485906  0.93252456  0.59555132    -0.60090
H615        H  0.23535812  0.92027757  0.58882220     0.43930
H616        H  0.15939256  0.95794140  0.78396779     0.43890
C617        C  0.16119786  0.10415372  0.66282133    -0.05170
C618        C  0.15791716  0.09845813  0.71001499    -0.32600
C619        C  0.18256320  0.06515073  0.73256188     0.36650
C620        C  0.22016875  0.04565045  0.71159454    -0.05530
C621        C  0.22746115  0.05538467  0.66631150    -0.32500
C622        C  0.19451894  0.07762526  0.64097005     0.36550
H623        H  0.13533873  0.11784017  0.73041522     0.16920
O624        O  0.16812920  0.04961067  0.77372733    -0.60000
H625        H  0.25696815  0.04265197  0.64925229     0.16940
O626        O  0.19995120  0.07863387  0.59539397    -0.60090
H627        H  0.19456065  0.04736841  0.58527539     0.43930
H628        H  0.15990928  0.07618932  0.79194326     0.43890
C629        C  0.29643054  0.04866544  0.77957228    -0.05170
C630        C  0.27234540  0.08411576  0.79849061    -0.32600
C631        C  0.29348207  0.11528861  0.82597008     0.36650
C632        C  0.33935431  0.10866765  0.83963020    -0.05530
C633        C  0.36462295  0.07663918  0.81542858    -0.32500
C634        C  0.34376246  0.04747007  0.78531002     0.36550
H635        H  0.23657159  0.08711423  0.79465378     0.16920
O636        O  0.26857326  0.15205335  0.83841646    -0.60000
H637        H  0.40091896  0.07427377  0.81910859     0.16940
O638        O  0.36948254  0.01616957  0.76318347    -0.60090
H639        H  0.38121665  0.99552250  0.78667117     0.43930
H640        H  0.27245598  0.17423722  0.81385943     0.43890
C641        C  0.34071938  0.90478047  0.84179227    -0.05170
C642        C  0.31766452  0.94045589  0.86273759    -0.32600
C643        C  0.28998348  0.96962118  0.83872626     0.36650
C644        C  0.28712697  0.96641750  0.79175504    -0.05530
C645        C  0.30618012  0.92909764  0.77073035    -0.32500
C646        C  0.33082562  0.89722853  0.79544412     0.36550
H647        H  0.32007658  0.94555777  0.89841634     0.16920
O648        O  0.26832424  0.00341424  0.86131201    -0.60000
H649        H  0.30359701  0.92522348  0.73477010     0.16940
O650        O  0.34279660  0.85819364  0.77418826    -0.60090
H651        H  0.36283404  0.86709737  0.74898099     0.43930
H652        H  0.23622422  0.99374037  0.86332901     0.43890
C653        C  0.10344096  0.66721803  0.16893954    -0.05170
C654        C  0.10299149  0.71463629  0.17272991    -0.32600
C655        C  0.06893638  0.73638418  0.19668068     0.36650
C656        C  0.03914145  0.71091458  0.22303842    -0.05530
C657        C  0.04501945  0.66458796  0.22633492    -0.32500
C658        C  0.07592712  0.64255739  0.19946546     0.36550
H659        H  0.12747616  0.73565648  0.15599428     0.16920
O660        O  0.06444159  0.78210454  0.19315572    -0.60000
H661        H  0.02359044  0.64477328  0.24818339     0.16940
O662        O  0.07871196  0.59672739  0.20356408    -0.60090
H663        H  0.09386610  0.59105945  0.23275169     0.43930
H664        H  0.04661251  0.78720363  0.16540351     0.43890
C665        C  0.78144635  0.71640653  0.04476407    -0.05170
C666        C  0.78150079  0.66998823  0.03934968    -0.32600
C667        C  0.80988805  0.64286407  0.06502277     0.36650
C668        C  0.83401603  0.66078540  0.10240757    -0.05530
C669        C  0.82782759  0.70705018  0.11142826    -0.32500
C670        C  0.80594275  0.73528657  0.08053711     0.36550
H671        H  0.76424231  0.65532208  0.01079808     0.16920
O672        O  0.81555324  0.59950607  0.05098686    -0.60000
H673        H  0.84219775  0.72244559  0.14092257     0.16940
O674        O  0.80987869  0.78113982  0.08425685    -0.60090
H675        H  0.79885550  0.78891888  0.11464595     0.43930
H676        H  0.83162347  0.60138052  0.02182951     0.43890
C677        C  0.95625166  0.70969752  0.21956083    -0.05170
C678        C  0.95168192  0.71904303  0.17378010    -0.32600
C679        C  0.92380796  0.69333582  0.14603035     0.36650
C680        C  0.89684391  0.65798007  0.16400284    -0.05530
C681        C  0.90442597  0.64675879  0.20972373    -0.32500
C682        C  0.93249301  0.67299356  0.23758052     0.36550
H683        H  0.97225054  0.74518605  0.15865797     0.16920
O684        O  0.92446203  0.70216680  0.10082904    -0.60000
H685        H  0.88943378  0.61696270  0.22424223     0.16940
O686        O  0.93795881  0.66156637  0.28189919    -0.60090
H687        H  0.95181226  0.63123010  0.28210252     0.43930
H688        H  0.91687843  0.73445901  0.09727773     0.43890
C689        C  0.83701652  0.41051941  0.85553542    -0.05170
C690        C  0.80261256  0.39589181  0.82579941    -0.32600
C691        C  0.77058689  0.42578424  0.80746563     0.36650
C692        C  0.77590992  0.47275529  0.81376712    -0.05530
C693        C  0.80199887  0.48399970  0.85185030    -0.32500
C694        C  0.83047722  0.45407661  0.87337808     0.36550
H695        H  0.79859258  0.36026696  0.81957901     0.16920
O696        O  0.73011739  0.40758505  0.79448224    -0.60000
H697        H  0.80022200  0.51606112  0.86760334     0.16940
O698        O  0.84437995  0.46527231  0.91595127    -0.60090
H699        H  0.86192119  0.49356789  0.91312768     0.43930
H700        H  0.70993839  0.41014691  0.82091501     0.43890
C701        C  0.04176696  0.72184172  0.78623514    -0.05170
C702        C  0.06715687  0.74314551  0.81978035    -0.32600
C703        C  0.09351277  0.71804115  0.85039276     0.36650
C704        C  0.09919973  0.67099329  0.84432691    -0.05530
C705        C  0.07310847  0.65033187  0.81043643    -0.32500
C706        C  0.04545343  0.67508328  0.78156098     0.36550
H707        H  0.06142326  0.77849478  0.82616221     0.16920
O708        O  0.10740484  0.73846561  0.88928653    -0.60000
H709        H  0.07473087  0.61431006  0.80581062     0.16940
O710        O  0.02011033  0.65296782  0.74993825    -0.60090
H711        H  0.99496656  0.63855351  0.76673337     0.43930
H712        H  0.12259439  0.76687791  0.88042254     0.43890
C713        C  0.79780233  0.73452668  0.96465096    -0.05170
C714        C  0.78155786  0.72437163  0.92140597    -0.32600
C715        C  0.80692653  0.69839841  0.89112850     0.36650
C716        C  0.84646248  0.67550726  0.90598628    -0.05530
C717        C  0.86660956  0.69447982  0.94471480    -0.32500
C718        C  0.84387879  0.72500264  0.97210101     0.36550
H719        H  0.74984789  0.73589152  0.90944913     0.16920
O720        O  0.79360448  0.69678390  0.84693097    -0.60000
H721        H  0.90050421  0.68754921  0.95502610     0.16940
O722        O  0.86684411  0.74504591  0.00674687    -0.60090
H723        H  0.87998041  0.72029898  0.02487370     0.43930
H724        H  0.76099391  0.68857058  0.84673796     0.43890
C725        C  0.90315366  0.67096235  0.84660148    -0.05170
C726        C  0.89078001  0.68361100  0.80214168    -0.32600
C727        C  0.92071338  0.70785422  0.77470828     0.36650
C728        C  0.95837700  0.72893521  0.79431293    -0.05530
C729        C  0.96344832  0.72613132  0.84085726    -0.32500
C730        C  0.94129898  0.69312363  0.86505234     0.36550
H731        H  0.85968988  0.67201625  0.78693474     0.16920
O732        O  0.91495513  0.70713141  0.72907462    -0.60000
H733        H  0.99020440  0.74422084  0.85771251     0.16940
O734        O  0.95958307  0.68177806  0.90563867    -0.60090
H735        H  0.98575469  0.66208638  0.89866914     0.43930
H736        H  0.88581600  0.72270368  0.72320458     0.43890
C737        C  0.78066811  0.55543046  0.79494379    -0.05170
C738        C  0.82530803  0.56245994  0.78123087    -0.32600
C739        C  0.85518834  0.58865035  0.80678970     0.36650
C740        C  0.83965952  0.61143650  0.84602317    -0.05530
C741        C  0.79415146  0.60394932  0.85887309    -0.32500
C742        C  0.76414496  0.57901034  0.83233961     0.36550
H743        H  0.83843726  0.54354242  0.75313194     0.16920
O744        O  0.89964694  0.59206509  0.79305140    -0.60000
H745        H  0.78165726  0.61591265  0.89070029     0.16940
O746        O  0.72145837  0.57003096  0.84830745    -0.60090
H747        H  0.70460218  0.59872096  0.84561845     0.43930
H748        H  0.90994979  0.56153003  0.78461899     0.43890
C749        C  0.16182749  0.61044236  0.84398069    -0.05170
C750        C  0.18523697  0.57556448  0.86607127    -0.32600
C751        C  0.21394088  0.54672444  0.84337199     0.36650
C752        C  0.21767624  0.54954704  0.79650268    -0.05530
C753        C  0.19801874  0.58606446  0.77412952    -0.32500
C754        C  0.17222728  0.61780265  0.79771759     0.36550
H755        H  0.18064869  0.56953362  0.90146720     0.16920
O756        O  0.23682463  0.51414879  0.86706000    -0.60000
H757        H  0.20152325  0.58947628  0.73816217     0.16940
O758        O  0.15983690  0.65653018  0.77573622    -0.60090
H759        H  0.14240213  0.64706791  0.74890537     0.43930
H760        H  0.21323286  0.49401926  0.87975048     0.43890
C761        C  0.20915199  0.46716137  0.78645576    -0.05170
C762        C  0.23168384  0.43080406  0.80653667    -0.32600
C763        C  0.20741419  0.39852029  0.83156179     0.36650
C764        C  0.16049400  0.40543769  0.84108795    -0.05530
C765        C  0.13853045  0.43930998  0.81576416    -0.32500
C766        C  0.16184518  0.46848751  0.78791097     0.36550
H767        H  0.26816171  0.42797579  0.80404950     0.16920
O768        O  0.22913710  0.35946966  0.84350608    -0.60000
H769        H  0.10266371  0.44470988  0.81723369     0.16940
O770        O  0.13816552  0.50006875  0.76363049    -0.60090
H771        H  0.12452153  0.52060886  0.78596308     0.43930
H772        H  0.25675725  0.36848401  0.86024261     0.43890
C773        C  0.76525529  0.54546173  0.20529315    -0.05170
C774        C  0.77940325  0.58642999  0.22413641    -0.32600
C775        C  0.80619956  0.61657912  0.19904984     0.36650
C776        C  0.82855485  0.60162819  0.15946147    -0.05530
C777        C  0.81029758  0.56281585  0.13963688    -0.32500
C778        C  0.77552823  0.53827497  0.15977661     0.36550
H779        H  0.77126504  0.59504001  0.25830007     0.16920
O780        O  0.81198453  0.65936772  0.21485991    -0.60000
H781        H  0.82354207  0.55002780  0.10868652     0.16940
O782        O  0.75792742  0.50202124  0.13743026    -0.60090
H783        H  0.72690436  0.51124797  0.12854220     0.43930
H784        H  0.78716288  0.67710717  0.20105245     0.43890
C785        C  0.78166226  0.46398416  0.22350615    -0.05170
C786        C  0.82744247  0.47380259  0.21617583    -0.32600
C787        C  0.84857599  0.45346105  0.18030873     0.36650
C788        C  0.83831295  0.40829738  0.16999359    -0.05530
C789        C  0.79585035  0.39236679  0.18630523    -0.32500
C790        C  0.76569395  0.42163565  0.20876690     0.36550
H791        H  0.84060499  0.50621697  0.22637189     0.16920
O792        O  0.86495265  0.48250017  0.14851802    -0.60000
H793        H  0.78445710  0.35875328  0.17842742     0.16940
O794        O  0.72085655  0.41012018  0.21228041    -0.60090
H795        H  0.72000223  0.38381870  0.23278854     0.43930
H796        H  0.84730713  0.47679817  0.12075810     0.43890
C797        C  0.04015567  0.22096383  0.72128610    -0.05170
C798        C  0.03704339  0.17396988  0.72236273    -0.32600
C799        C  0.06506014  0.14692121  0.69579154     0.36650
C800        C  0.10062349  0.16653554  0.66983744    -0.05530
C801        C  0.10837604  0.21320491  0.67705881    -0.32500
C802        C  0.07652526  0.24061339  0.69828868     0.36550
H803        H  0.00980685  0.15820588  0.74107220     0.16920
O804        O  0.06028212  0.10109209  0.69927474    -0.60000
H805        H  0.13814040  0.23006601  0.66446114     0.16940
O806        O  0.07905669  0.28639020  0.69290825    -0.60090
H807        H  0.10887298  0.29553808  0.70530058     0.43930
H808        H  0.02764118  0.09437381  0.69502222     0.43890
C809        C  0.95779958  0.23277087  0.70794573    -0.05170
C810        C  0.96568542  0.22580469  0.66221869    -0.32600
C811        C  0.94103350  0.19407398  0.63827968     0.36650
C812        C  0.90109275  0.17514395  0.65712114    -0.05530
C813        C  0.88669936  0.19278082  0.69878830    -0.32500
C814        C  0.91698142  0.21635748  0.72627892     0.36550
H815        H  0.99605808  0.23934647  0.64682267     0.16920
O816        O  0.95962231  0.17831405  0.59922249    -0.60000
H817        H  0.85415537  0.18351858  0.71270206     0.16940
O818        O  0.90763401  0.21931193  0.77112279    -0.60090
H819        H  0.92493355  0.19452538  0.78539306     0.43930
H820        H  0.97006653  0.20479603  0.58173277     0.43890
C821        C  0.95697296  0.29458173  0.78954443    -0.05170
C822        C  0.92443506  0.32243412  0.76962725    -0.32600
C823        C  0.89621312  0.35014253  0.79590399     0.36650
C824        C  0.89837778  0.34827190  0.84398111    -0.05530
C825        C  0.93384949  0.32195745  0.86203073    -0.32500
C826        C  0.95952972  0.29278887  0.83636737     0.36550
H827        H  0.92473409  0.32689877  0.73355904     0.16920
O828        O  0.87347321  0.38358345  0.77367490    -0.60000
H829        H  0.94094919  0.32215952  0.89759262     0.16940
O830        O  0.99018503  0.26487596  0.85723125    -0.60090
H831        H  0.01310346  0.28484276  0.87115362     0.43930
H832        H  0.85261392  0.36827348  0.75252257     0.43890
C833        C  0.03968902  0.30612195  0.78033079    -0.05170
C834        C  0.08022054  0.28536150  0.79401322    -0.32600
C835        C  0.11272105  0.30989370  0.81822754     0.36650
C836        C  0.09936488  0.35005756  0.84033072    -0.05530
C837        C  0.05922019  0.37044121  0.82519507    -0.32500
C838        C  0.03386157  0.35178613  0.79095090     0.36550
H839        H  0.08715109  0.25060673  0.78668408     0.16920
O840        O  0.15639339  0.29399324  0.82149637    -0.60000
H841        H  0.04765343  0.40219404  0.83769904     0.16940
O842        O  0.00177300  0.37755617  0.76941259    -0.60090
H843        H  0.98329573  0.39212229  0.79302207     0.43930
H844        H  0.15438161  0.26194612  0.83052106     0.43890
C845        C  0.67286699  0.16339724  0.11254346    -0.05170
C846        C  0.70068570  0.14265096  0.08032655    -0.32600
C847        C  0.72672235  0.16807087  0.05069367     0.36650
C848        C  0.72601000  0.21517933  0.05335898    -0.05530
C849        C  0.70813353  0.23491919  0.09195019    -0.32500
C850        C  0.68485453  0.20851012  0.12353441     0.36550
H851        H  0.70063289  0.10684483  0.07561854     0.16920
O852        O  0.75025502  0.14691469  0.01714376    -0.60000
H853        H  0.71000237  0.27085299  0.09679300     0.16940
O854        O  0.67457335  0.22658415  0.16467417    -0.60090
H855        H  0.66249399  0.25724287  0.15931891     0.43930
H856        H  0.72699618  0.13327639  0.99734646     0.43890
C857        C  0.70902916  0.22539113  0.97173526    -0.05170
C858        C  0.66239973  0.21767475  0.97780933    -0.32600
C859        C  0.63745568  0.19046591  0.94853141     0.36650
C860        C  0.65844184  0.17119656  0.91016138    -0.05530
C861        C  0.70276595  0.18636671  0.90036266    -0.32500
C862        C  0.72902104  0.20949324  0.93190811     0.36550
H863        H  0.64555200  0.23081477  0.00723790     0.16920
O864        O  0.59176144  0.18583982  0.95598925    -0.60000
H865        H  0.71819669  0.17919322  0.86834497     0.16940
O866        O  0.77475118  0.21186009  0.92504137    -0.60090
H867        H  0.77871091  0.22917716  0.89680533     0.43930
H868        H  0.58899049  0.16825362  0.98418074     0.43890
C869        C  0.84140555  0.34808743  0.11139450    -0.05170
C870        C  0.81248978  0.37173405  0.08224324    -0.32600
C871        C  0.78023817  0.34969666  0.05627495     0.36650
C872        C  0.78086449  0.30250758  0.05223790    -0.05530
C873        C  0.80891357  0.27818334  0.08116581    -0.32500
C874        C  0.83615286  0.30010775  0.11291708     0.36550
H875        H  0.81275208  0.40812470  0.08192909     0.16920
O876        O  0.74797092  0.37501202  0.03510755    -0.60000
H877        H  0.80951649  0.24186703  0.07966610     0.16940
O878        O  0.85392238  0.27417611  0.14675002    -0.60090
H879        H  0.87381071  0.25174884  0.13206291     0.43930
H880        H  0.72066155  0.37265639  0.05433285     0.43890
C881        C  0.78040580  0.29784712  0.97045642    -0.05170
C882        C  0.82324296  0.28182928  0.95961420    -0.32600
C883        C  0.84795827  0.30076051  0.92482885     0.36650
C884        C  0.83668259  0.34443514  0.90810169    -0.05530
C885        C  0.79283934  0.36046068  0.92121269    -0.32500
C886        C  0.76356550  0.33552081  0.94846015     0.36550
H887        H  0.83583533  0.25159491  0.97578067     0.16920
O888        O  0.87848009  0.27276386  0.90519114    -0.60000
H889        H  0.77961906  0.39248279  0.91070710     0.16940
O890        O  0.71911116  0.34833455  0.95451477    -0.60090
H891        H  0.71834387  0.38161251  0.95596562     0.43930
H892        H  0.86193934  0.25875749  0.87983666     0.43890
C893        C  0.22098492  0.72459519  0.04760419    -0.05170
C894        C  0.17416326  0.73223150  0.04856633    -0.32600
C895        C  0.14591841  0.70828707  0.07791177     0.36650
C896        C  0.16434143  0.67485056  0.10694805    -0.05530
C897        C  0.21237566  0.67242999  0.10956590    -0.32500
C898        C  0.24032407  0.69696510  0.08064901     0.36550
H899        H  0.15887616  0.75404496  0.02360485     0.16920
O900        O  0.10014089  0.71690120  0.07693047    -0.60000
H901        H  0.22949045  0.64937312  0.13184548     0.16940
O902        O  0.28598945  0.68873333  0.08106136    -0.60090
H903        H  0.29039332  0.66169418  0.06227960     0.43930
H904        H  0.09659250  0.74955426  0.08244402     0.43890
C905        C  0.22658035  0.70506670  0.96554839    -0.05170
C906        C  0.22262087  0.72021295  0.92086878    -0.32600
C907        C  0.19323709  0.69889409  0.89025406     0.36650
C908        C  0.16348330  0.66444513  0.90511890    -0.05530
C909        C  0.17322212  0.64542852  0.94728448    -0.32500
C910        C  0.20620983  0.66313143  0.97538015     0.36550
H911        H  0.24196095  0.74781412  0.90828827     0.16920
O912        O  0.19423858  0.71132268  0.84582584    -0.60000
H913        H  0.15757098  0.61447407  0.95822013     0.16940
O914        O  0.22027008  0.63774285  0.01134533    -0.60090
H915        H  0.19256736  0.62858587  0.02786961     0.43930
H916        H  0.19078510  0.74444159  0.84483572     0.43890
C917        C  0.34411081  0.84608070  0.10218638    -0.05170
C918        C  0.36459328  0.80748775  0.08406538    -0.32600
C919        C  0.33986027  0.77664535  0.05885543     0.36650
C920        C  0.29639664  0.78796321  0.04302713    -0.05530
C921        C  0.27767128  0.82926550  0.05565940    -0.32500
C922        C  0.30095432  0.85841664  0.08469765     0.36550
H923        H  0.39937707  0.79934837  0.09231077     0.16920
O924        O  0.35971157  0.73663583  0.04727341    -0.60000
H925        H  0.24600941  0.84019470  0.04076668     0.16940
O926        O  0.28369838  0.90068901  0.09136579    -0.60090
H927        H  0.25314879  0.89637018  0.10457400     0.43930
H928        H  0.36792387  0.72155746  0.07587164     0.43890
C929        C  0.34505817  0.84414600  0.90294147    -0.05170
C930        C  0.29725943  0.84593582  0.90683373    -0.32600
C931        C  0.27436378  0.81897139  0.93802177     0.36650
C932        C  0.29766816  0.78457791  0.96087335    -0.05530
C933        C  0.34432071  0.78016328  0.95404399    -0.32500
C934        C  0.36833411  0.81235525  0.93000515     0.36550
H935        H  0.27702986  0.86930489  0.88773564     0.16920
O936        O  0.22958212  0.82739795  0.94741061    -0.60000
H937        H  0.36322567  0.75391932  0.97051616     0.16940
O938        O  0.41484389  0.81048054  0.93056379    -0.60090
H939        H  0.42402971  0.82538602  0.95882423     0.43930
H940        H  0.21272903  0.82183885  0.91918102     0.43890
C941        C  0.21900408  0.46167766  0.22727103    -0.05170
C942        C  0.22983992  0.45764645  0.18140967    -0.32600
C943        C  0.20173864  0.43186316  0.15331224     0.36650
C944        C  0.16927466  0.40219794  0.17225717    -0.05530
C945        C  0.16853619  0.39846383  0.21979145    -0.32500
C946        C  0.19094994  0.42933437  0.24687307     0.36550
H947        H  0.25247980  0.48195819  0.16614112     0.16920
O948        O  0.20362913  0.43830794  0.10769193    -0.60000
H949        H  0.14822192  0.37381256  0.23715007     0.16940
O950        O  0.18127925  0.43064515  0.29180004    -0.60090
H951        H  0.19740764  0.40453938  0.30503876     0.43930
H952        H  0.23519372  0.43148536  0.09865099     0.43890
C953        C  0.19989451  0.54570076  0.22610614    -0.05170
C954        C  0.17361404  0.53440728  0.18831959    -0.32600
C955        C  0.16674344  0.56412136  0.15370425     0.36650
C956        C  0.16379256  0.60991217  0.16338383    -0.05530
C957        C  0.18284474  0.62385801  0.20485698    -0.32500
C958        C  0.20099466  0.59257611  0.23590502     0.36550
H959        H  0.16033541  0.50135710  0.18310848     0.16920
O960        O  0.16122440  0.54731755  0.11127627    -0.60000
H961        H  0.18159412  0.65895306  0.21418650     0.16940
O962        O  0.21302888  0.60857044  0.27709577    -0.60090
H963        H  0.18577529  0.60462537  0.29612734     0.43930
H964        H  0.19073180  0.55228686  0.09618840     0.43890
C965        C  0.16113758  0.17235757  0.60833082    -0.05170
C966        C  0.13926809  0.20745781  0.58439057    -0.32600
C967        C  0.16475576  0.24154733  0.56371121     0.36650
C968        C  0.20932717  0.23193379  0.55026131    -0.05530
C969        C  0.23110196  0.19619015  0.57180124    -0.32500
C970        C  0.20953811  0.17308130  0.60683106     0.36550
H971        H  0.10280526  0.21122698  0.58629025     0.16920
O972        O  0.14436391  0.28127261  0.55185510    -0.60000
H973        H  0.26507608  0.18652299  0.56235011     0.16940
O974        O  0.23578304  0.15673987  0.64134106    -0.60090
H975        H  0.26186184  0.14085504  0.62763889     0.43930
H976        H  0.15592253  0.30357794  0.57365436     0.43890
C977        C  0.20654386  0.22726627  0.46592747    -0.05170
C978        C  0.15957763  0.22056338  0.46675704    -0.32600
C979        C  0.13894130  0.18710903  0.44233509     0.36650
C980        C  0.16230282  0.16741125  0.40578274    -0.05530
C981        C  0.20605657  0.18468260  0.39654879    -0.32500
C982        C  0.23034076  0.20820999  0.42959111     0.36550
H983        H  0.13743857  0.24029839  0.48693698     0.16920
O984        O  0.09320096  0.18101829  0.44877102    -0.60000
H985        H  0.22316551  0.17665168  0.36558733     0.16940
O986        O  0.27677359  0.20879428  0.42758034    -0.60090
H987        H  0.28463835  0.22248459  0.39820684     0.43930
H988        H  0.09029814  0.16602961  0.47841042     0.43890
C989        C  0.53831050  0.22377732  0.20652138    -0.05170
C990        C  0.56048823  0.23781313  0.16766921    -0.32600
C991        C  0.58579756  0.20755765  0.14244436     0.36650
C992        C  0.60128971  0.16697933  0.16212971    -0.05530
C993        C  0.58103881  0.15373060  0.20311659    -0.32500
C994        C  0.54882191  0.18120378  0.22442095     0.36550
H995        H  0.55251868  0.27026983  0.15321044     0.16920
O996        O  0.59364377  0.21675962  0.09781466    -0.60000
H997        H  0.58813910  0.12103299  0.21743205     0.16940
O998        O  0.52667007  0.16555840  0.26172781    -0.60090
H999        H  0.49875177  0.15102172  0.25020620     0.43930
H1000       H  0.60490039  0.24812544  0.09593574     0.43890
C1001       C  0.39654800  0.17216409  0.15492298    -0.05170
C1002       C  0.43814641  0.18336542  0.13485822    -0.32600
C1003       C  0.46211603  0.22097186  0.14810243     0.36650
C1004       C  0.45476441  0.23859804  0.19105929    -0.05530
C1005       C  0.41022313  0.23381840  0.20732999    -0.32500
C1006       C  0.38000567  0.20301502  0.18728903     0.36550
H1007       H  0.45060560  0.16620229  0.10569457     0.16920
O1008       O  0.48581732  0.24521220  0.11652799    -0.60000
H1009       H  0.39743671  0.25450406  0.23362169     0.16940
O1010       O  0.33496849  0.20319959  0.19912840    -0.60090
H1011       H  0.33384198  0.20254845  0.23234999     0.43930
H1012       H  0.50133569  0.22352108  0.09659041     0.43890
C1013       C  0.04240941  0.30261224  0.23251427    -0.05170
C1014       C  0.07777257  0.27900270  0.21216137    -0.32600
C1015       C  0.10954727  0.30093724  0.18480653     0.36650
C1016       C  0.10360225  0.34715485  0.17291024    -0.05530
C1017       C  0.06992062  0.37090852  0.19648557    -0.32500
C1018       C  0.04081845  0.34960190  0.22667726     0.36550
H1019       H  0.08026701  0.24305538  0.21572111     0.16920
O1020       O  0.14746788  0.27728887  0.17257709    -0.60000
H1021       H  0.06699868  0.40685063  0.19320118     0.16940
O1022       O  0.00998038  0.37496039  0.24995891    -0.60090
H1023       H  0.99004936  0.38900632  0.22703508     0.43930
H1024       H  0.13654908  0.25205938  0.15379611     0.43890
C1025       C  0.95892762  0.22740980  0.30357168    -0.05170
C1026       C  0.95774311  0.22562500  0.35066511    -0.32600
C1027       C  0.92689743  0.19832615  0.37364559     0.36650
C1028       C  0.89414793  0.17306152  0.34988454    -0.05530
C1029       C  0.89155922  0.18020862  0.30283662    -0.32500
C1030       C  0.92484234  0.20476739  0.27962359     0.36550
H1031       H  0.98246433  0.24385313  0.37015175     0.16920
O1032       O  0.92831323  0.19736611  0.41965139    -0.60000
H1033       H  0.86480831  0.16531012  0.28310173     0.16940
O1034       O  0.92587344  0.20300228  0.23369292    -0.60090
H1035       H  0.89810574  0.21876152  0.22340207     0.43930
H1036       H  0.95616362  0.18039991  0.42750862     0.43890
C1037       C  0.95952167  0.29287544  0.22534319    -0.05170
C1038       C  0.92659411  0.31824356  0.24713420    -0.32600
C1039       C  0.89704533  0.34563471  0.22255028     0.36650
C1040       C  0.90005294  0.34730541  0.17474586    -0.05530
C1041       C  0.93254195  0.31961195  0.15387635    -0.32500
C1042       C  0.96034942  0.29145447  0.17837873     0.36550
H1043       H  0.92640637  0.31993343  0.28341210     0.16920
O1044       O  0.86727110  0.37142955  0.24635837    -0.60000
H1045       H  0.93548492  0.31880544  0.11770752     0.16940
O1046       O  0.99132928  0.26545033  0.15609704    -0.60090
H1047       H  0.97781537  0.23496942  0.15533129     0.43930
H1048       H  0.88522666  0.39749617  0.25696559     0.43890
C1049       C  0.04289958  0.22593401  0.29729512    -0.05170
C1050       C  0.05665771  0.18571399  0.27807663    -0.32600
C1051       C  0.09387008  0.16220376  0.29529929     0.36650
C1052       C  0.11064368  0.17276139  0.33890516    -0.05530
C1053       C  0.10119293  0.21773537  0.35279666    -0.32500
C1054       C  0.06774583  0.24390866  0.33248549     0.36550
H1055       H  0.04103904  0.17484522  0.24703555     0.16920
O1056       O  0.12075479  0.14089753  0.26448522    -0.60000
H1057       H  0.11896051  0.23429081  0.37939451     0.16940
O1058       O  0.05896309  0.28659816  0.34755661    -0.60090
H1059       H  0.05099080  0.28352922  0.37971781     0.43930
H1060       H  0.10069800  0.12085779  0.24678055     0.43890
C1061       C  0.29912348  0.96649076  0.22442472    -0.05170
C1062       C  0.27975771  0.92518810  0.21210888    -0.32600
C1063       C  0.30354693  0.89449213  0.18560170     0.36650
C1064       C  0.34364663  0.90805545  0.16318294    -0.05530
C1065       C  0.36310614  0.94888684  0.17686253    -0.32500
C1066       C  0.34414516  0.97442816  0.21076857     0.36550
H1067       H  0.24645217  0.91558450  0.22185890     0.16920
O1068       O  0.28593001  0.85224189  0.18003761    -0.60000
H1069       H  0.39564266  0.95980246  0.16489286     0.16940
O1070       O  0.37065243  0.00580783  0.23201798    -0.60090
H1071       H  0.38636463  0.02333619  0.20829659     0.43930
H1072       H  0.28837966  0.83754849  0.20984048     0.43890
C1073       C  0.21518552  0.04446289  0.28976505    -0.05170
C1074       C  0.23654106  0.06689696  0.32510028    -0.32600
C1075       C  0.21143255  0.09245903  0.35541590     0.36650
C1076       C  0.16528833  0.10297099  0.34624475    -0.05530
C1077       C  0.14361699  0.07451659  0.31525075    -0.32500
C1078       C  0.16809032  0.04885573  0.28490851     0.36550
H1079       H  0.27148438  0.05921994  0.33318462     0.16920
O1080       O  0.23036156  0.09955085  0.39679167    -0.60000
H1081       H  0.10709077  0.07441454  0.31220189     0.16940
O1082       O  0.14513067  0.02621438  0.25200839    -0.60090
H1083       H  0.15071899  0.04356880  0.22411250     0.43930
H1084       H  0.21675629  0.07646542  0.41671795     0.43890
C1085       C  0.33727850  0.10752882  0.16546354    -0.05170
C1086       C  0.30355059  0.07977043  0.14636353    -0.32600
C1087       C  0.27643561  0.05169462  0.17241149     0.36650
C1088       C  0.28322744  0.04907621  0.21884359    -0.05530
C1089       C  0.31469130  0.07801945  0.23896416    -0.32500
C1090       C  0.34360846  0.10499982  0.21269138     0.36550
H1091       H  0.29864279  0.07931932  0.11037091     0.16920
O1092       O  0.24571422  0.02391460  0.15179508    -0.60000
H1093       H  0.32262781  0.07370946  0.27415045     0.16940
O1094       O  0.38234232  0.12145433  0.23233137    -0.60090
H1095       H  0.37271206  0.13774588  0.25965036     0.43930
H1096       H  0.26394953  0.99963184  0.13803012     0.43890
C1097       C  0.15809464  0.90531949  0.34004580    -0.05170
C1098       C  0.18989655  0.93287058  0.36237248    -0.32600
C1099       C  0.22257968  0.95731356  0.33915036     0.36650
C1100       C  0.21914835  0.96213969  0.29252050    -0.05530
C1101       C  0.18444034  0.93910413  0.27008690    -0.32500
C1102       C  0.15546827  0.90954840  0.29259304     0.36550
H1103       H  0.19167267  0.93277346  0.39864670     0.16920
O1104       O  0.25709432  0.97781690  0.36235311    -0.60000
H1105       H  0.17829511  0.94571758  0.23483100     0.16940
O1106       O  0.12303904  0.88819446  0.26762084    -0.60090
H1107       H  0.09797059  0.91017999  0.26449135     0.43930
H1108       H  0.24255136  0.99614802  0.38601881     0.43890
C1109       C  0.20706334  0.29070797  0.96555480    -0.05170
C1110       C  0.17013962  0.27261821  0.94286438    -0.32600
C1111       C  0.14306784  0.29990446  0.91575251     0.36650
C1112       C  0.15794021  0.34396012  0.90389468    -0.05530
C1113       C  0.19427338  0.36212076  0.92861495    -0.32500
C1114       C  0.21869676  0.33598036  0.95895193     0.36550
H1115       H  0.15893573  0.23881872  0.95070372     0.16920
O1116       O  0.09957564  0.28583528  0.90681875    -0.60000
H1117       H  0.20344047  0.39715733  0.92468086     0.16940
O1118       O  0.25345480  0.35509808  0.98284516    -0.60090
H1119       H  0.23860406  0.37401203  0.00583493     0.43930
H1120       H  0.10189524  0.25519462  0.89406719     0.43890
C1121       C  0.33613096  0.16369402  0.09997639    -0.05170
C1122       C  0.28988022  0.17278155  0.10956961    -0.32600
C1123       C  0.26235091  0.19654462  0.07945390     0.36650
C1124       C  0.28194647  0.21678776  0.04161442    -0.05530
C1125       C  0.32878027  0.21311817  0.03532312    -0.32500
C1126       C  0.35507009  0.18496981  0.06174503     0.36550
H1127       H  0.27395247  0.16055520  0.13983410     0.16920
O1128       O  0.21629336  0.19671736  0.08564366    -0.60000
H1129       H  0.34492240  0.22904915  0.00685287     0.16940
O1130       O  0.39826119  0.17596607  0.04743122    -0.60090
H1131       H  0.41409528  0.20535621  0.04563010     0.43930
H1132       H  0.21110115  0.21387436  0.11360638     0.43890
C1133       C  0.20475818  0.28439736  0.04791725    -0.05170
C1134       C  0.23149749  0.30750672  0.07874548    -0.32600
C1135       C  0.21132463  0.33386848  0.11215572     0.36650
C1136       C  0.16332900  0.34140591  0.11153982    -0.05530
C1137       C  0.13738671  0.31367650  0.08320319    -0.32500
C1138       C  0.15749198  0.28443806  0.05327250     0.36550
H1139       H  0.26809542  0.30549012  0.07669296     0.16920
O1140       O  0.23823284  0.34793519  0.14699221    -0.60000
H1141       H  0.10077153  0.31330143  0.08546505     0.16940
O1142       O  0.13027146  0.25664061  0.02854840    -0.60090
H1143       H  0.13050485  0.22752660  0.04481222     0.43930
H1144       H  0.26442825  0.36387824  0.13342501     0.43890
C1145       C  0.26950766  0.21423364  0.95929554    -0.05170
C1146       C  0.26523504  0.16765415  0.95504289    -0.32600
C1147       C  0.29465764  0.14309601  0.92758995     0.36650
C1148       C  0.32932149  0.16552053  0.90290855    -0.05530
C1149       C  0.32841235  0.21320191  0.90290392    -0.32500
C1150       C  0.29949298  0.23726375  0.93096429     0.36550
H1151       H  0.24117679  0.14982424  0.97601947     0.16920
O1152       O  0.28754087  0.09764154  0.92232781    -0.60000
H1153       H  0.35071501  0.23303753  0.88216535     0.16940
O1154       O  0.30524677  0.28277638  0.93479534    -0.60090
H1155       H  0.29228544  0.29570831  0.90689769     0.43930
H1156       H  0.27942755  0.08498143  0.95208062     0.43890
C1157       C  0.60203621  0.66229278  0.67075902    -0.05170
C1158       C  0.59716470  0.70942923  0.67223979    -0.32600
C1159       C  0.56129588  0.72873284  0.69535948     0.36650
C1160       C  0.54398728  0.70607930  0.73267474    -0.05530
C1161       C  0.55783684  0.66166689  0.74020560    -0.32500
C1162       C  0.58110227  0.63825403  0.70656643     0.36550
H1163       H  0.61994175  0.73227732  0.65597895     0.16920
O1164       O  0.54541892  0.77080886  0.68387153    -0.60000
H1165       H  0.54771424  0.64401999  0.77022419     0.16940
O1166       O  0.58645320  0.59273263  0.71123223    -0.60090
H1167       H  0.55570755  0.57974143  0.70758829     0.43930
H1168       H  0.57210353  0.79045259  0.67879777     0.43890
C1169       C  0.66637288  0.60776872  0.66137473    -0.05170
C1170       C  0.68168054  0.56701303  0.64331165    -0.32600
C1171       C  0.71155617  0.53909526  0.66708785     0.36650
C1172       C  0.72142534  0.54740543  0.71303151    -0.05530
C1173       C  0.70890604  0.58973074  0.72967719    -0.32500
C1174       C  0.68569172  0.62097481  0.70302735     0.36550
H1175       H  0.67211973  0.55756257  0.60958139     0.16920
O1176       O  0.73066981  0.50333517  0.64521755    -0.60000
H1177       H  0.71475653  0.59898347  0.76384817     0.16940
O1178       O  0.67958641  0.66335906  0.71978775    -0.60090
H1179       H  0.70187490  0.68242112  0.70369368     0.43930
H1180       H  0.70509305  0.48556142  0.63291916     0.43890
C1181       C  0.65879295  0.66995564  0.60316218    -0.05170
C1182       C  0.70284777  0.65806870  0.58844521    -0.32600
C1183       C  0.72608364  0.68380564  0.55683605     0.36650
C1184       C  0.70930276  0.72608749  0.54455805    -0.05530
C1185       C  0.66737958  0.73969880  0.56074481    -0.32500
C1186       C  0.63938529  0.70884862  0.58270906     0.36550
H1187       H  0.71881428  0.62702506  0.59792846     0.16920
O1188       O  0.76318272  0.66611160  0.53521167    -0.60000
H1189       H  0.65392660  0.77205349  0.55105333     0.16940
O1190       O  0.59311771  0.71583374  0.58235016    -0.60090
H1191       H  0.58760313  0.74848942  0.58613151     0.43930
H1192       H  0.78369803  0.65409532  0.55874211     0.43890
C1193       C  0.39425578  0.34344425  0.66998131    -0.05170
C1194       C  0.42859443  0.31824708  0.64906954    -0.32600
C1195       C  0.45744861  0.29062199  0.67398280     0.36650
C1196       C  0.45443751  0.28991475  0.72116331    -0.05530
C1197       C  0.41650871  0.30892666  0.74154062    -0.32500
C1198       C  0.38492300  0.33284366  0.71599662     0.36550
H1199       H  0.43339528  0.31994107  0.61320527     0.16920
O1200       O  0.49107944  0.26716501  0.65251051    -0.60000
H1201       H  0.41239913  0.30736585  0.77756902     0.16940
O1202       O  0.34559598  0.34561371  0.73679428    -0.60090
H1203       H  0.32473521  0.31970593  0.73369207     0.43930
H1204       H  0.51161235  0.29007504  0.63933421     0.43890
C1205       C  0.33671886  0.40715642  0.67146445    -0.05170
C1206       C  0.28866135  0.40819891  0.66833670    -0.32600
C1207       C  0.26309951  0.43843690  0.69324238     0.36650
C1208       C  0.28494531  0.46710662  0.72322307    -0.05530
C1209       C  0.33118174  0.46247946  0.73130901    -0.32500
C1210       C  0.35732624  0.43332648  0.70575959     0.36550
H1211       H  0.26990185  0.38658293  0.64611692     0.16920
O1212       O  0.21751992  0.44260234  0.68509405    -0.60000
H1213       H  0.34758841  0.48386177  0.75580284     0.16940
O1214       O  0.40248270  0.42814534  0.71627006    -0.60090
H1215       H  0.41503083  0.45824019  0.72331661     0.43930
H1216       H  0.20320737  0.41711624  0.70125226     0.43890
C1217       C  0.27948507  0.30457729  0.54466758    -0.05170
C1218       C  0.30105780  0.28108213  0.57907208    -0.32600
C1219       C  0.32578574  0.30294321  0.61206777     0.36650
C1220       C  0.33522945  0.34980394  0.60812083    -0.05530
C1221       C  0.31310767  0.37346329  0.57324238    -0.32500
C1222       C  0.28437160  0.35168099  0.54305881     0.36550
H1223       H  0.30171175  0.24517486  0.57957665     0.16920
O1224       O  0.34057847  0.27711922  0.64727665    -0.60000
H1225       H  0.31749800  0.40945861  0.56997238     0.16940
O1226       O  0.26356336  0.37648822  0.51011426    -0.60090
H1227       H  0.23194349  0.38053179  0.52055540     0.43930
H1228       H  0.31374737  0.27305995  0.66687655     0.43890
C1229       C  0.70035815  0.46487500  0.28633202    -0.05170
C1230       C  0.65319206  0.46210935  0.28266283    -0.32600
C1231       C  0.62817334  0.43243194  0.30903109     0.36650
C1232       C  0.65033867  0.40352891  0.34014294    -0.05530
C1233       C  0.69849747  0.40540414  0.34187307    -0.32500
C1234       C  0.72315683  0.43625275  0.31610889     0.36550
H1235       H  0.63525036  0.48468710  0.26023780     0.16920
O1236       O  0.58190110  0.43127316  0.30347676    -0.60000
H1237       H  0.71803349  0.38365041  0.36354013     0.16940
O1238       O  0.76936231  0.43884717  0.32092804    -0.60090
H1239       H  0.77461020  0.45184589  0.35104056     0.43930
H1240       H  0.57639402  0.42278114  0.27180596     0.43890
C1241       C  0.69469834  0.29189801  0.47021255    -0.05170
C1242       C  0.69046015  0.27292052  0.42707584    -0.32600
C1243       C  0.66985594  0.29721555  0.39178419     0.36650
C1244       C  0.65512502  0.34213219  0.39907138    -0.05530
C1245       C  0.66924606  0.36259509  0.43823182    -0.32500
C1246       C  0.67655243  0.33595184  0.47527917     0.36550
H1247       H  0.69981389  0.23860327  0.42062180     0.16920
O1248       O  0.66737189  0.27803969  0.35008653    -0.60000
H1249       H  0.66184837  0.39780836  0.44360700     0.16940
O1250       O  0.65136753  0.34718965  0.51215583    -0.60090
H1251       H  0.65492098  0.37996269  0.51711763     0.43930
H1252       H  0.64760242  0.25129037  0.35349640     0.43890
C1253       C  0.59587687  0.33631888  0.33886314    -0.05170
C1254       C  0.60233735  0.33503530  0.29187157    -0.32600
C1255       C  0.57286863  0.31141475  0.26408540     0.36650
C1256       C  0.53976897  0.28340266  0.28305042    -0.05530
C1257       C  0.53987007  0.27669488  0.32958526    -0.32500
C1258       C  0.56619415  0.30380105  0.35753859     0.36550
H1259       H  0.62851999  0.35429801  0.27544313     0.16920
O1260       O  0.57275499  0.32091315  0.21908652    -0.60000
H1261       H  0.51569889  0.25382543  0.34470255     0.16940
O1262       O  0.56352560  0.29726074  0.40295931    -0.60090
H1263       H  0.53178168  0.30443598  0.41122809     0.43930
H1264       H  0.60311982  0.31196355  0.20800736     0.43890
C1265       C  0.39516504  0.67010928  0.33655845    -0.05170
C1266       C  0.39058001  0.71770759  0.33476541    -0.32600
C1267       C  0.42143555  0.74440707  0.31138246     0.36650
C1268       C  0.45366056  0.72403514  0.28387742    -0.05530
C1269       C  0.45077569  0.67767175  0.27606825    -0.32500
C1270       C  0.42492997  0.65044168  0.30465254     0.36550
H1271       H  0.36517560  0.73557564  0.35350062     0.16920
O1272       O  0.42290316  0.78973912  0.31929485    -0.60000
H1273       H  0.47528809  0.66183597  0.25420144     0.16940
O1274       O  0.43073371  0.60480393  0.30250188    -0.60090
H1275       H  0.42268777  0.59592587  0.27147703     0.43930
H1276       H  0.39669321  0.80246355  0.30272466     0.43890
C1277       C  0.29126859  0.73025310  0.46150506    -0.05170
C1278       C  0.26768931  0.70462838  0.43007048    -0.32600
C1279       C  0.29100599  0.67975054  0.39755928     0.36650
C1280       C  0.33898893  0.67265052  0.40165763    -0.05530
C1281       C  0.36206322  0.70164135  0.43105166    -0.32500
C1282       C  0.33880376  0.73312185  0.45669458     0.36550
H1283       H  0.23100773  0.70409326  0.43017360     0.16920
O1284       O  0.26712331  0.66616421  0.36041365    -0.60000
H1285       H  0.39869818  0.70348293  0.43036644     0.16940
O1286       O  0.36274617  0.76855666  0.47366501    -0.60090
H1287       H  0.36139849  0.79216825  0.45015961     0.43930
H1288       H  0.24082781  0.64859194  0.37156518     0.43890
C1289       C  0.27354781  0.54943792  0.30452926    -0.05170
C1290       C  0.27212967  0.55686160  0.35077398    -0.32600
C1291       C  0.30604003  0.58116504  0.37203209     0.36650
C1292       C  0.33530978  0.60862248  0.34632750    -0.05530
C1293       C  0.33046456  0.60745288  0.29896266    -0.32500
C1294       C  0.30352197  0.57501007  0.27845049     0.36550
H1295       H  0.24601352  0.54223541  0.37109692     0.16920
O1296       O  0.30878903  0.58007377  0.41807385    -0.60000
H1297       H  0.34796459  0.63030228  0.27691540     0.16940
O1298       O  0.30603835  0.56923373  0.23292913    -0.60090
H1299       H  0.32919326  0.54553532  0.22853490     0.43930
H1300       H  0.27967744  0.59220500  0.42937586     0.43890
C1301       C  0.70645416  0.72974727  0.46222415    -0.05170
C1302       C  0.73083885  0.70157608  0.43376982    -0.32600
C1303       C  0.70814724  0.67443477  0.40244045     0.36650
C1304       C  0.65996107  0.66908358  0.40522140    -0.05530
C1305       C  0.63654864  0.70023193  0.43199005    -0.32500
C1306       C  0.65927012  0.73269854  0.45670601     0.36550
H1307       H  0.76751356  0.70105971  0.43539180     0.16920
O1308       O  0.73284574  0.65735465  0.36743929    -0.60000
H1309       H  0.59987162  0.70151077  0.43139992     0.16940
O1310       O  0.63558989  0.76849441  0.47377574    -0.60090
H1311       H  0.60780797  0.75616996  0.48799930     0.43930
H1312       H  0.75924946  0.64154047  0.38076058     0.43570
C1313       C  0.59648072  0.66762029  0.35018808    -0.05170
C1314       C  0.61195735  0.70858971  0.33022070    -0.32600
C1315       C  0.58095235  0.74045899  0.31186899     0.36650
C1316       C  0.53513804  0.72825614  0.30770298    -0.05530
C1317       C  0.52126192  0.69686288  0.34017200    -0.32500
C1318       C  0.54902965  0.66249158  0.35310812     0.36550
H1319       H  0.64756262  0.71725412  0.33182648     0.16920
O1320       O  0.59277818  0.78514475  0.30824322    -0.60000
H1321       H  0.48690506  0.69439811  0.35198647     0.16940
O1322       O  0.52773943  0.62421582  0.36700475    -0.60090
H1323       H  0.52194818  0.60684443  0.33926145     0.43930
H1324       H  0.62612374  0.78689809  0.30427952     0.43890
C1325       C  0.65873467  0.60733590  0.34509019    -0.05170
C1326       C  0.65287405  0.60759093  0.29792572    -0.32600
C1327       C  0.67599878  0.57695648  0.27065571     0.36650
C1328       C  0.70679339  0.54668422  0.29003363    -0.05530
C1329       C  0.71475195  0.54814766  0.33624980    -0.32500
C1330       C  0.68992009  0.57630707  0.36386237     0.36550
H1331       H  0.62867714  0.62962991  0.28184470     0.16920
O1332       O  0.66546609  0.57424282  0.22595577    -0.60000
H1333       H  0.73774163  0.52437131  0.35173115     0.16940
O1334       O  0.69466533  0.57206612  0.40960037    -0.60090
H1335       H  0.72716731  0.57717793  0.41638789     0.43930
H1336       H  0.67988708  0.60087821  0.21188459     0.43890
C1337       C  0.33856705  0.40608044  0.34533710    -0.05170
C1338       C  0.30771151  0.43119994  0.37116678    -0.32600
C1339       C  0.27315934  0.45621846  0.35092308     0.36650
C1340       C  0.27611367  0.46707858  0.30505666    -0.05530
C1341       C  0.30741203  0.44370204  0.27882343    -0.32500
C1342       C  0.33484056  0.41025321  0.29767872     0.36550
H1343       H  0.30688093  0.42659730  0.40722043     0.16920
O1344       O  0.23454576  0.46627487  0.37470858    -0.60000
H1345       H  0.30962696  0.45029802  0.24316944     0.16940
O1346       O  0.35552713  0.38135438  0.26863092    -0.60090
H1347       H  0.33443060  0.35556561  0.26582543     0.43930
H1348       H  0.24387984  0.47351788  0.40583978     0.43890
C1349       C  0.28689225  0.29237443  0.46311661    -0.05170
C1350       C  0.26531007  0.31365417  0.42715754    -0.32600
C1351       C  0.29099665  0.33433935  0.39342677     0.36650
C1352       C  0.33905633  0.33917120  0.39856545    -0.05530
C1353       C  0.35961142  0.30996255  0.42971449    -0.32500
C1354       C  0.33430485  0.28760783  0.46221795     0.36550
H1355       H  0.22864842  0.31482231  0.42556044     0.16920
O1356       O  0.26858939  0.34827537  0.35556298    -0.60000
H1357       H  0.39593538  0.30500841  0.42935617     0.16940
O1358       O  0.35616544  0.26156185  0.49356626    -0.60090
H1359       H  0.37331833  0.28285960  0.51266452     0.43930
H1360       H  0.27492747  0.32493227  0.33281119     0.43890
C1361       C  0.45803062  0.29756859  0.27852374    -0.05170
C1362       C  0.46013013  0.34453442  0.28070298    -0.32600
C1363       C  0.43461368  0.36867380  0.31202383     0.36650
C1364       C  0.40212115  0.34641560  0.33952531    -0.05530
C1365       C  0.39913665  0.29896750  0.33502755    -0.32500
C1366       C  0.42873147  0.27479334  0.30772261     0.36550
H1367       H  0.48428600  0.36252221  0.25997033     0.16920
O1368       O  0.43859820  0.41454364  0.31197795    -0.60000
H1369       H  0.37446085  0.27912962  0.35285655     0.16940
O1370       O  0.43050758  0.22873276  0.31118542    -0.60090
H1371       H  0.39955351  0.21761790  0.30441639     0.43930
H1372       H  0.46999013  0.42086271  0.32217747     0.43890
C1373       C  0.66036617  0.40668961  0.67699302    -0.05170
C1374       C  0.63879151  0.43785608  0.70555624    -0.32600
C1375       C  0.66314944  0.46696138  0.73267603     0.36650
C1376       C  0.71045453  0.46691206  0.73104064    -0.05530
C1377       C  0.73267784  0.43237873  0.70818218    -0.32500
C1378       C  0.70753311  0.39948921  0.68537367     0.36550
H1379       H  0.60254900  0.44096988  0.70691361     0.16920
O1380       O  0.64049766  0.49771550  0.75844831    -0.60000
H1381       H  0.76933044  0.43034115  0.70930503     0.16940
O1382       O  0.72803260  0.35911796  0.67602841    -0.60090
H1383       H  0.75863817  0.36583222  0.66395777     0.43930
H1384       H  0.62903529  0.52063866  0.73710470     0.43890
C1385       C  0.53633690  0.30807618  0.73156625    -0.05170
C1386       C  0.57864774  0.28913491  0.72137078    -0.32600
C1387       C  0.61085796  0.31388204  0.69725209     0.36650
C1388       C  0.59761428  0.35349152  0.67377329    -0.05530
C1389       C  0.55585137  0.37256224  0.68594826    -0.32500
C1390       C  0.52821594  0.35265168  0.71788760     0.36550
H1391       H  0.58715917  0.25515722  0.73073673     0.16920
O1392       O  0.65417008  0.29748154  0.69458103    -0.60000
H1393       H  0.54469026  0.40443029  0.67299629     0.16940
O1394       O  0.49167540  0.37612797  0.73398490    -0.60090
H1395       H  0.47397229  0.38540958  0.70727105     0.43930
H1396       H  0.66873629  0.30594767  0.72331198     0.43890
C1397       C  0.65831781  0.34742720  0.61255653    -0.05170
C1398       C  0.64068645  0.30475179  0.60107781    -0.32600
C1399       C  0.66383008  0.27544761  0.57266455     0.36650
C1400       C  0.70585782  0.28808186  0.55422520    -0.05530
C1401       C  0.72455283  0.32985412  0.56594601    -0.32500
C1402       C  0.69913796  0.36092353  0.59111931     0.36550
H1403       H  0.60705041  0.29481430  0.61154407     0.16920
O1404       O  0.64209737  0.23756637  0.55749057    -0.60000
H1405       H  0.75456168  0.34155404  0.54852426     0.16940
O1406       O  0.71102101  0.40561674  0.58995929    -0.60090
H1407       H  0.74405937  0.40722720  0.59591145     0.43930
H1408       H  0.63448416  0.21963378  0.58456370     0.43890
C1409       C  0.46067221  0.70629685  0.73395546    -0.05170
C1410       C  0.43131094  0.73360914  0.70882705    -0.32600
C1411       C  0.39707817  0.71447079  0.68228835     0.36650
C1412       C  0.39842731  0.66770497  0.67171446    -0.05530
C1413       C  0.42599421  0.64089606  0.69967473    -0.32500
C1414       C  0.45308732  0.65958416  0.73317023     0.36550
H1415       H  0.43401211  0.76980308  0.71034850     0.16920
O1416       O  0.36200574  0.74167975  0.66922889    -0.60000
H1417       H  0.42340540  0.60468401  0.69834653     0.16940
O1418       O  0.46909579  0.63260969  0.76716944    -0.60090
H1419       H  0.48081669  0.60477996  0.75311645     0.43930
H1420       H  0.33721198  0.73527922  0.69074454     0.43890
C1421       C  0.33865509  0.67513331  0.60707575    -0.05170
C1422       C  0.29112833  0.66903720  0.60107005    -0.32600
C1423       C  0.26674338  0.69321712  0.56874227     0.36650
C1424       C  0.28754080  0.72862318  0.54569549    -0.05530
C1425       C  0.33131392  0.74112196  0.55872454    -0.32500
C1426       C  0.35857465  0.71197974  0.58396572     0.36550
H1427       H  0.27202506  0.64416909  0.61923779     0.16920
O1428       O  0.22324523  0.68056125  0.55850306    -0.60000
H1429       H  0.34550340  0.77255572  0.54753321     0.16940
O1430       O  0.40389473  0.72190018  0.58892636    -0.60090
H1431       H  0.41585724  0.72878416  0.55858969     0.43930
H1432       H  0.20454604  0.69110491  0.58396524     0.43890
C1433       C  0.28144073  0.54931928  0.71402909    -0.05170
C1434       C  0.28452410  0.54639834  0.66704831    -0.32600
C1435       C  0.31295271  0.57463641  0.64246060     0.36650
C1436       C  0.33573618  0.61050388  0.66381388    -0.05530
C1437       C  0.32730248  0.61664638  0.71034843    -0.32500
C1438       C  0.30324751  0.58501461  0.73569720     0.36550
H1439       H  0.26726555  0.51968301  0.64936951     0.16920
O1440       O  0.31640693  0.56828609  0.59702401    -0.60000
H1441       H  0.34107035  0.64492127  0.72842758     0.16940
O1442       O  0.30504477  0.58706523  0.78162007    -0.60090
H1443       H  0.29010811  0.61570090  0.78987536     0.43930
H1444       H  0.33391752  0.54010623  0.59335415     0.43890
loop_ 
_geom_bond_atom_site_label_1 
_geom_bond_atom_site_label_2 
_geom_bond_distance 
_geom_bond_site_symmetry_2 
_ccdc_geom_bond_type 
C1           C52   1.568       .  S
C1         C1412   1.567       .  S
C1         C1421   1.565       .  S
C1         C1436   1.561       .  S
C2           C58   1.577       .  S
C2           N20   1.362       .  A
C2           C39   1.481       .  S
N3           N20   1.335       .  A
N3           N25   1.321       .  A
N3          Co40   2.117       .  S
C4           N29   1.347       .  A
C4           C42   1.484       .  S
C4           H49   1.080       .  S
H5           C46   1.075       .  S
C6           N30   1.343       .  A
C6           C10   1.480       .  S
C6           H35   1.076       .  S
Co7          N25   2.131       .  S
Co7          N15   2.119       .  S
Co7          N47   2.123       .  S
Co7          N23   2.107       .  S
Co7         Cl51   2.461       .  S
N8           C46   1.342       .  A
N8           N15   1.323       .  A
N8           Co9   2.122       .  S
Co9          N12   2.111       .  S
Co9          N29   2.117       .  S
Co9          N16   2.141       .  S
Co9         Cl51   2.485       .  S
C10          C60   1.570       .  S
C10          N48   1.361       .  A
N11          N18   1.322       .  A
N11          N41   1.332       .  A
N11         Co44   2.123       .  S
N12          N30   1.320       .  A
N12          N48   1.332       .  A
N13          C42   1.357       .  A
N13          N23   1.330       .  A
H14          C39   1.081       .  S
N15          N36   1.330       .  A
N16          N34   1.321       .  A
N16          N21   1.335       .  A
C17          C55   1.579       .  S
C17          N21   1.369       .  A
C17          C45   1.482       .  S
N18          C33   1.346       .  A
N18         Co40   2.118       .  S
C19          N47   1.348       .  A
C19          C22   1.485       .  S
C19          H53   1.082       .  S
C22          C57   1.559       .  S
C22          N43   1.356       .  A
N23          N29   1.321       .  A
N24          C50   1.340       .  A
N24          N26   1.316       .  A
N24         Co40   2.102       .  S
N25          C39   1.349       .  A
N26          N54   1.330       .  A
N26         Co44   2.088       .  S
H27          C50   1.078       .  S
H28          C45   1.077       .  S
N30         Co44   2.113       .  S
N31          N43   1.328       .  A
N31          N47   1.321       .  A
N31         Co40   2.095       .  S
C32          C56   1.576       .  S
C32          N36   1.361       .  A
C32          C46   1.486       .  S
C33          C52   1.478       .  S
C33          H37   1.077       .  S
N34          C45   1.345       .  A
N34         Co44   2.121       .  S
C38          C61   1.551       .  S
C38          N54   1.356       .  A
C38          C50   1.476       .  S
Co40        Cl51   2.475       .  S
N41          C52   1.362       .  A
C42          C59   1.581       .  S
Co44        Cl51   2.464       .  S
C55        C1373   1.565       .  S
C55        C1388   1.551       .  S
C55        C1397   1.560       .  S
C56        C1337   1.557       .  S
C56        C1352   1.572       .  S
C56        C1364   1.565       .  S
C57        C1304   1.559       .  S
C57        C1313   1.564       .  S
C57        C1325   1.539       .  S
C58        C1265   1.565       .  S
C58        C1280   1.571       .  S
C58        C1292   1.541       .  S
C59        C1232   1.558       .  S
C59        C1244   1.544       .  S
C59        C1253   1.550       .  S
C60        C1193   1.555       .  S
C60        C1205   1.551       .  S
C60        C1220   1.555       .  S
C61        C1157   1.565       .  S
C61        C1169   1.562       .  S
C61        C1181   1.562       .  S
C62          C63   1.354       .  D
C62        C1124   1.486       .  S
C62        C1145   1.488   1_554  S
C63        C1109   1.471   1_554  S
C63        C1133   1.480       .  S
C64          C65   1.363       .  D
C64        C1073   1.483       .  S
C64        C1100   1.482   1_545  S
C65        C1061   1.510   1_545  S
C65        C1088   1.491       .  S
C66          C67   1.362       .  D
C66        C1025   1.500   1_455  S
C66        C1049   1.467       .  S
C67        C1013   1.503       .  S
C67        C1037   1.471   1_455  S
C68          C69   1.370       .  D
C68         C989   1.502       .  S
C68        C1004   1.524       .  S
C69        C1256   1.487       .  S
C69        C1361   1.484       .  S
C70          C71   1.372       .  D
C70        C1217   1.492       .  S
C70        C1349   1.485       .  S
C71         C968   1.503       .  S
C71         C977   1.509       .  S
C72          C73   1.376       .  D
C72        C1289   1.476       .  S
C72        C1340   1.503       .  S
C73         C941   1.503       .  S
C73         C953   1.548       .  S
C74          C75   1.371       .  D
C74         C920   1.492       .  S
C74         C932   1.480   1_554  S
C75         C893   1.494       .  S
C75         C905   1.526   1_554  S
C76          C77   1.369       .  D
C76         C872   1.498       .  S
C76         C881   1.466   1_554  S
C77         C848   1.490       .  S
C77         C857   1.511   1_554  S
C78          C79   1.365       .  D
C78         C821   1.492       .  S
C78         C833   1.502   1_655  S
C79         C797   1.498   1_655  S
C79         C809   1.499       .  S
C80          C81   1.361       .  D
C80         C773   1.516       .  S
C80         C785   1.511       .  S
C81        C1229   1.479       .  S
C81        C1328   1.479       .  S
C82          C83   1.356       .  D
C82         C752   1.487       .  S
C82         C761   1.491       .  S
C83        C1208   1.468       .  S
C83        C1433   1.492       .  S
C84          C85   1.570       .  S
C84         C716   1.578       .  S
C84         C725   1.552       .  S
C84         C740   1.569       .  S
C85         N103   1.352       .  A
C85         C122   1.487       .  S
N86         N103   1.322       .  A
N86         N108   1.316       .  A
N86        Co123   2.091   1_556  S
C87         N112   1.344       .  A
C87         C125   1.479       .  S
C87         H132   1.081       .  S
H88         C129   1.081       .  S
C89         N113   1.335       .  A
C89          C93   1.471       .  S
C89         H118   1.082       .  S
Co90        N108   2.115   1_455  S
Co90         N98   2.109   1_455  S
Co90        N130   2.098       .  S
Co90        N106   2.086       .  S
Co90       Cl134   2.480   1_556  S
N91         C129   1.351       .  A
N91          N98   1.322       .  A
N91         Co92   2.111   1_656  S
Co92         N95   2.116   1_455  S
Co92        N112   2.117   1_554  S
Co92         N99   2.153       .  S
Co92       Cl134   2.453       .  S
C93         C138   1.568       .  S
C93         N131   1.364       .  A
N94         N101   1.323       .  A
N94         N124   1.334       .  A
N94        Co127   2.123   1_655  S
N95         N113   1.318       .  A
N95         N131   1.336       .  A
N96         C125   1.353       .  A
N96         N106   1.324       .  A
H97         C122   1.075       .  S
N98         N119   1.326       .  A
N99         N117   1.323       .  A
N99         N104   1.332       .  A
C100        C146   1.578       .  S
C100        N104   1.365       .  A
C100        C128   1.479       .  S
N101        C116   1.341       .  A
N101       Co123   2.110       .  S
C102        N130   1.346       .  A
C102        C105   1.470       .  S
C102        H136   1.081       .  S
C105        C140   1.557       .  S
C105        N126   1.360       .  A
N106        N112   1.322       .  A
N107        C133   1.349       .  A
N107        N109   1.318       .  A
N107       Co123   2.102   1_455  S
N108        C122   1.349       .  A
N109        N137   1.322       .  A
N109       Co127   2.105       .  S
H110        C133   1.077       .  S
H111        C128   1.080       .  S
N113       Co127   2.101   1_655  S
N114        N126   1.331       .  A
N114        N130   1.320       .  A
N114       Co123   2.117   1_456  S
C115        C141   1.553       .  S
C115        N119   1.357       .  A
C115        C129   1.474       .  S
C116        C135   1.470       .  S
C116        H120   1.081       .  S
N117        C128   1.350       .  A
N117       Co127   2.104       .  S
C121        C145   1.573       .  S
C121        N137   1.360       .  A
C121        C133   1.482       .  S
Co123      Cl134   2.450   1_655  S
N124        C135   1.362       .  A
C125        C139   1.556       .  S
Co127      Cl134   2.490       .  S
C135        C142   1.553       .  S
C138        C788   1.570       .  S
C138        C869   1.560       .  S
C138       C1040   1.541       .  S
C139        C764   1.563       .  S
C139        C836   1.545       .  S
C139       C1112   1.544       .  S
C140        C704   1.554       .  S
C140        C749   1.553       .  S
C140        C908   1.552       .  S
C141        C689   1.559       .  S
C141        C824   1.576       .  S
C141        C884   1.585       .  S
C142        C668   1.558       .  S
C142        C680   1.570       .  S
C142        C776   1.561       .  S
C143        C144   1.384       .  D
C143       C1172   1.529       .  S
C143       C1376   1.474       .  S
C144        C692   1.549       .  S
C144        C737   1.492       .  S
C145        C653   1.547       .  S
C145        C896   1.564       .  S
C145        C956   1.559       .  S
C146        C944   1.556       .  S
C146       C1016   1.563       .  S
C146       C1136   1.555       .  S
C147        C148   1.361       .  D
C147        C629   1.489       .  S
C147        C644   1.492   1_545  S
C148        C608   1.478   1_545  S
C148        C620   1.488       .  S
C149        C150   1.385       .  D
C149       C1268   1.498       .  S
C149       C1316   1.540       .  S
C150        C584   1.492       .  S
C150        C593   1.528       .  S
C151        C152   1.364       .  D
C151       C1196   1.492       .  S
C151       C1385   1.501       .  S
C152        C560   1.496       .  S
C152        C569   1.471       .  S
C153        C204   1.544       .  S
C153        C545   1.586       .  S
C153        C572   1.584       .  S
C153        C860   1.564       .  S
C154        C209   1.572       .  S
C154        N172   1.361       .  A
C154        C191   1.482       .  S
N155        N172   1.330       .  A
N155        N177   1.319       .  A
N155       Co192   2.106       .  S
C156        N181   1.342       .  A
C156        C194   1.480       .  S
C156        H201   1.077       .  S
H157        C198   1.082       .  S
C158        N182   1.340       .  A
C158        C162   1.475       .  S
C158        H187   1.077       .  S
Co159       N177   2.119   1_554  S
Co159       N167   2.097       .  S
Co159       N199   2.115   1_544  S
Co159       N175   2.113   1_545  S
Co159      Cl203   2.462       .  S
N160        C198   1.344       .  A
N160        N167   1.322       .  A
N160       Co161   2.110       .  S
Co161       N164   2.126       .  S
Co161       N181   2.101   1_545  S
Co161       N168   2.088   1_545  S
Co161      Cl203   2.465       .  S
C162        C215   1.559       .  S
C162        N200   1.365       .  A
N163        N170   1.318       .  A
N163        N193   1.325       .  A
N163       Co196   2.094   1_556  S
N164        N182   1.319       .  A
N164        N200   1.329       .  A
N165        C194   1.361       .  A
N165        N175   1.328       .  A
H166        C191   1.076       .  S
N167        N188   1.330       .  A
N168        N186   1.320       .  A
N168        N173   1.329       .  A
C169        C207   1.556       .  S
C169        N173   1.353       .  A
C169        C197   1.479       .  S
N170        C185   1.344       .  A
N170       Co192   2.096       .  S
C171        N199   1.345       .  A
C171        C174   1.480       .  S
C171        H205   1.082       .  S
C174        C208   1.564       .  S
C174        N195   1.356       .  A
N175        N181   1.319       .  A
N176        C202   1.339       .  A
N176        N178   1.322       .  A
N176       Co192   2.106   1_565  S
N177        C191   1.345       .  A
N178        N206   1.327       .  A
N178       Co196   2.095   1_566  S
H179        C202   1.081       .  S
H180        C197   1.082       .  S
N182       Co196   2.091       .  S
N183        N195   1.330       .  A
N183        N199   1.319       .  A
N183       Co192   2.102   1_565  S
C184        C214   1.547       .  S
C184        N188   1.355       .  A
C184        C198   1.471       .  S
C185        C204   1.477       .  S
C185        H189   1.078       .  S
N186        C197   1.350       .  A
N186       Co196   2.124   1_565  S
C190        C210   1.548       .  S
C190        N206   1.354       .  A
C190        C202   1.473       .  S
Co192      Cl203   2.467   1_556  S
N193        C204   1.355       .  A
C194        C211   1.559       .  S
Co196      Cl203   2.464       .  S
C207        C521   1.553       .  S
C207        C533   1.560       .  S
C207        C596   1.551       .  S
C208        C509   1.566       .  S
C208        C641   1.557       .  S
C208        C929   1.552       .  S
C209        C557   1.559       .  S
C209        C632   1.548       .  S
C209       C1148   1.562       .  S
C210        C473   1.569       .  S
C210        C485   1.566       .  S
C210        C497   1.552       .  S
C211        C581   1.562       .  S
C211        C917   1.554       .  S
C211       C1064   1.542       .  S
C212        C213   1.379       .  D
C212        C500   1.526       .  S
C212        C512   1.495       .  S
C213       C1160   1.476       .  S
C213       C1409   1.506       .  S
C214       C1001   1.546       .  S
C214       C1085   1.553       .  S
C214       C1121   1.551       .  S
C215        C461   1.549       .  S
C215        C845   1.567       .  S
C215        C992   1.551       .  S
C216        C217   1.362       .  D
C216        C656   1.470   1_655  S
C216        C677   1.491       .  S
C217        C440   1.521   1_655  S
C217        C449   1.508       .  S
C218        C219   1.378   1_565  D
C218        C464   1.524   1_565  S
C218        C536   1.504       .  S
C219        C413   1.489   1_545  S
C219        C425   1.491       .  S
C220        C221   1.384       .  D
C220       C1241   1.532       .  S
C220       C1400   1.491       .  S
C221        C389   1.502       .  S
C221        C404   1.514       .  S
C222        C223   1.378       .  D
C222       C1277   1.505       .  S
C222       C1424   1.499       .  S
C223        C365   1.505       .  S
C223        C377   1.505       .  S
C224        C225   1.570       .  S
C224        C392   1.587       .  S
C224        C428   1.572       .  S
C224       C1028   1.560       .  S
C225        N243   1.364       .  A
C225        C262   1.479       .  S
N226        N243   1.331       .  A
N226        N248   1.318       .  A
N226       Co263   2.116       .  S
C227        N252   1.346       .  A
C227        C265   1.480       .  S
C227        H272   1.081       .  S
H228        C269   1.079       .  S
C229        N253   1.353       .  A
C229        C233   1.487       .  S
C229        H258   1.081       .  S
Co230       N248   2.100       .  S
Co230       N238   2.099       .  S
Co230       N270   2.111   1_545  S
Co230       N246   2.112   1_545  S
Co230      Cl274   2.458   1_655  S
N231        C269   1.343       .  A
N231        N238   1.321       .  A
N231       Co232   2.107   1_655  S
Co232       N235   2.117       .  S
Co232       N252   2.112   1_445  S
Co232       N239   2.100   1_545  S
Co232      Cl274   2.475       .  S
C233        C286   1.572       .  S
C233        N271   1.358       .  A
N234        N241   1.323       .  A
N234        N264   1.326       .  A
N234       Co267   2.136       .  S
N235        N253   1.320       .  A
N235        N271   1.328       .  A
N236        C265   1.357       .  A
N236        N246   1.329       .  A
H237        C262   1.076       .  S
N238        N259   1.329       .  A
N239        N257   1.318       .  A
N239        N244   1.328       .  A
C240        C280   1.572       .  S
C240        N244   1.356       .  A
C240        C268   1.484       .  S
N241        C256   1.349       .  A
N241       Co263   2.085   1_455  S
C242        N270   1.342       .  A
C242        C245   1.474       .  S
C242        H276   1.081       .  S
C245        C278   1.556       .  S
C245        N266   1.360       .  A
N246        N252   1.320       .  A
N247        C273   1.334       .  A
N247        N249   1.320       .  A
N247       Co263   2.109   1_465  S
N248        C262   1.341       .  A
N249        N277   1.336       .  A
N249       Co267   2.116   1_565  S
H250        C273   1.081       .  S
H251        C268   1.081       .  S
N253       Co267   2.133       .  S
N254        N266   1.334       .  A
N254        N270   1.323       .  A
N254       Co263   2.125   1_565  S
C255        C281   1.539       .  S
C255        N259   1.356       .  A
C255        C269   1.469       .  S
C256        C275   1.467       .  S
C256        H260   1.082       .  S
N257        C268   1.350       .  A
N257       Co267   2.124   1_565  S
C261        C279   1.561       .  S
C261        N277   1.363       .  A
C261        C273   1.472       .  S
Co263      Cl274   2.491   1_655  S
N264        C275   1.360       .  A
C265        C282   1.571       .  S
Co267      Cl274   2.455       .  S
C275        C285   1.547       .  S
C278        C353   1.546       .  S
C278        C416   1.556       .  S
C278        C452   1.568       .  S
C279        C368   1.571       .  S
C279        C437   1.574       .  S
C279       C1097   1.549       .  S
C280        C341   1.566       .  S
C280        C380   1.554       .  S
C280        C605   1.552       .  S
C281        C332   1.568       .  S
C281        C401   1.560       .  S
C281        C812   1.553       .  S
C282        C293   1.558       .  S
C282        C305   1.555       .  S
C282        C317   1.567       .  S
C283        C284   1.358       .  D
C283       C1184   1.472       .  S
C283       C1301   1.487       .  S
C284        C320   1.499       .  S
C284        C356   1.494       .  S
C285        C980   1.551       .  S
C285       C1052   1.593       .  S
C285       C1076   1.561       .  S
C286        C617   1.564       .  S
C286        C800   1.585       .  S
C286        C965   1.575       .  S
C287        C288   1.360       .  D
C287        C296   1.491       .  S
C287        C344   1.480   1_655  S
C288        C701   1.495   1_655  S
C288        C728   1.490       .  S
C289        C290   1.361       .  D
C289        C308   1.482   1_545  S
C289        C329   1.493       .  S
C290        C476   1.503   1_545  S
C290        C548   1.488       .  S
C291        C292   1.376       .  D
C291        C488   1.476   1_554  S
C291        C524   1.533       .  S
C292        C665   1.480       .  S
C292        C713   1.532   1_554  S
C293        C294   1.408       .  A
C293        C298   1.430       .  A
C294        H299   1.084       .  S
C294        C295   1.391       .  A
C295        C296   1.411       .  A
C295        O300   1.371       .  S
C296        C297   1.398       .  A
C297        H301   1.082       .  S
C297        C298   1.400       .  A
C298        O302   1.370       .  S
O300        H304   0.992       .  S
O302        H303   0.992       .  S
C305        C306   1.423       .  A
C305        C310   1.419       .  A
C306        H311   1.078       .  S
C306        C307   1.398       .  A
C307        C308   1.400       .  A
C307        O312   1.372       .  S
C308        C309   1.398       .  A
C309        H313   1.081       .  S
C309        C310   1.390       .  A
C310        O314   1.369       .  S
O312        H316   0.991       .  S
O314        H315   0.992       .  S
C317        C318   1.418       .  A
C317        C322   1.425       .  A
C318        H323   1.079       .  S
C318        C319   1.397       .  A
C319        C320   1.405       .  A
C319        O324   1.367       .  S
C320        C321   1.401       .  A
C321        H325   1.084       .  S
C321        C322   1.403       .  A
C322        O326   1.375       .  S
O324        H328   0.992       .  S
O326        H327   0.993       .  S
C329        C330   1.401       .  A
C329        C334   1.406       .  A
C330        H335   1.083       .  S
C330        C331   1.408       .  A
C331        C332   1.424       .  A
C331        O336   1.375       .  S
C332        C333   1.414       .  A
C333        H337   1.083       .  S
C333        C334   1.401       .  A
C334        O338   1.372       .  S
O336        H340   0.992       .  S
O338        H339   0.992       .  S
C341        C342   1.425       .  A
C341        C346   1.424       .  A
C342        H347   1.079       .  S
C342        C343   1.394       .  A
C343        C344   1.398       .  A
C343        O348   1.372       .  S
C344        C345   1.400       .  A
C345        H349   1.084       .  S
C345        C346   1.394       .  A
C346        O350   1.374       .  S
O348        H352   0.991       .  S
O350        H351   0.992       .  S
C353        C354   1.404       .  A
C353        C358   1.423       .  A
C354        H359   1.074       .  S
C354        C355   1.380       .  A
C355        C356   1.405       .  A
C355        O360   1.375       .  S
C356        C357   1.406       .  A
C357        H361   1.080       .  S
C357        C358   1.408       .  A
C358        O362   1.375       .  S
O360        H364   0.993       .  S
O362        H363   0.992       .  S
C365        C366   1.404       .  A
C365        C370   1.400       .  A
C366        H371   1.074       .  S
C366        C367   1.402       .  A
C367        C368   1.415       .  A
C367        O372   1.374       .  S
C368        C369   1.428       .  A
C369        H373   1.074       .  S
C369        C370   1.400       .  A
C370        O374   1.371       .  S
O372        H376   0.992       .  S
O374        H375   0.992       .  S
C377        C378   1.401       .  A
C377        C382   1.411       .  A
C378        H383   1.081       .  S
C378        C379   1.396       .  A
C379        C380   1.428       .  A
C379        O384   1.370       .  S
C380        C381   1.406       .  A
C381        H385   1.084       .  S
C381        C382   1.391       .  A
C382        O386   1.368       .  S
O384        H388   0.992       .  S
O386        H387   0.991       .  S
C389        C390   1.401       .  A
C389        C394   1.405       .  A
C390        H395   1.083       .  S
C390        C391   1.408       .  A
C391        C392   1.436       .  A
C391        O396   1.369       .  S
C392        C393   1.416       .  A
C393        H397   1.081       .  S
C393        C394   1.399       .  A
C394        O398   1.373       .  S
O396        H400   0.992       .  S
O398        H399   0.992       .  S
C401        C402   1.417       .  A
C401        C406   1.420       .  A
C402        H407   1.081       .  S
C402        C403   1.402       .  A
C403        C404   1.409       .  A
C403        O408   1.365       .  S
C404        C405   1.406       .  A
C405        H409   1.082       .  S
C405        C406   1.397       .  A
C406        O410   1.372       .  S
O408        H412   0.992       .  S
O410        H411   0.993       .  S
C413        C414   1.401       .  A
C413        C418   1.407       .  A
C414        H419   1.082       .  S
C414        C415   1.402       .  A
C415        C416   1.422       .  A
C415        O420   1.375       .  S
C416        C417   1.412       .  A
C417        H421   1.082       .  S
C417        C418   1.402       .  A
C418        O422   1.375       .  S
O420        H424   0.992       .  S
O422        H423   0.992       .  S
C425        C426   1.400       .  A
C425        C430   1.404       .  A
C426        H431   1.079       .  S
C426        C427   1.403       .  A
C427        C428   1.428       .  A
C427        O432   1.373       .  S
C428        C429   1.418       .  A
C429        H433   1.072       .  S
C429        C430   1.398       .  A
C430        O434   1.379       .  S
O432        H436   0.993       .  S
O434        H435   0.992       .  S
C437        C438   1.423       .  A
C437        C442   1.411       .  A
C438        H443   1.082       .  S
C438        C439   1.418       .  A
C439        C440   1.422       .  A
C439        O444   1.369       .  S
C440        C441   1.397       .  A
C441        H445   1.083   1_455  S
C441        C442   1.388       .  A
C442        O446   1.369       .  S
O444        H448   0.992       .  S
O446        H447   0.990   1_455  S
C449        C450   1.403       .  A
C449        C454   1.408       .  A
C450        H455   1.085       .  S
C450        C451   1.402       .  A
C451        C452   1.422       .  A
C451        O456   1.371       .  S
C452        C453   1.421       .  A
C453        H457   1.080       .  S
C453        C454   1.406       .  A
C454        O458   1.370       .  S
O456        H460   0.993       .  S
O458        H459   0.992       .  S
C461        C462   1.409       .  A
C461        C466   1.415       .  A
C462        H467   1.075       .  S
C462        C463   1.391       .  A
C463        C464   1.412       .  A
C463        O468   1.373       .  S
C464        C465   1.408       .  A
C465        H469   1.057       .  S
C465        C466   1.404       .  A
C466        O470   1.372       .  S
O468        H472   0.993   1_545  S
O470        H471   0.992       .  S
C473        C474   1.423       .  A
C473        C478   1.417       .  A
C474        H479   1.077       .  S
C474        C475   1.406       .  A
C475        C476   1.402       .  A
C475        O480   1.371       .  S
C476        C477   1.404       .  A
C477        H481   1.078       .  S
C477        C478   1.398       .  A
C478        O482   1.370       .  S
O480        H484   0.992       .  S
O482        H483   0.992       .  S
C485        C486   1.424       .  A
C485        C490   1.425       .  A
C486        H491   1.076       .  S
C486        C487   1.383       .  A
C487        C488   1.397       .  A
C487        O492   1.379       .  S
C488        C489   1.400       .  A
C489        H493   1.084       .  S
C489        C490   1.403       .  A
C490        O494   1.374       .  S
O492        H496   0.992       .  S
O494        H495   0.992       .  S
C497        C498   1.405       .  A
C497        C502   1.424       .  A
C498        H503   1.082       .  S
C498        C499   1.396       .  A
C499        C500   1.419       .  A
C499        O504   1.357       .  S
C500        C501   1.410       .  A
C501        H505   1.084       .  S
C501        C502   1.396       .  A
C502        O506   1.373       .  S
O504        H508   0.993       .  S
O506        H507   0.992       .  S
C509        C510   1.424       .  A
C509        C514   1.418       .  A
C510        H515   1.080       .  S
C510        C511   1.395       .  A
C511        C512   1.400       .  A
C511        O516   1.372       .  S
C512        C513   1.406       .  A
C513        H517   1.084       .  S
C513        C514   1.401       .  A
C514        O518   1.371       .  S
O516        H520   0.992       .  S
O518        H519   0.991       .  S
C521        C522   1.414       .  A
C521        C526   1.425       .  A
C522        H527   1.074       .  S
C522        C523   1.398       .  A
C523        C524   1.405       .  A
C523        O528   1.368       .  S
C524        C525   1.408       .  A
C525        H529   1.078       .  S
C525        C526   1.391       .  A
C526        O530   1.373       .  S
O528        H532   0.992       .  S
O530        H531   0.993       .  S
C533        C534   1.415       .  A
C533        C538   1.422       .  A
C534        H539   1.079       .  S
C534        C535   1.408       .  A
C535        C536   1.409       .  A
C535        O540   1.369       .  S
C536        C537   1.401       .  A
C537        H541   1.084       .  S
C537        C538   1.402       .  A
C538        O542   1.373       .  S
O540        H544   0.992       .  S
O542        H543   0.992       .  S
C545        C546   1.422       .  A
C545        C550   1.421       .  A
C546        H551   1.080       .  S
C546        C547   1.408       .  A
C547        C548   1.406       .  A
C547        O552   1.371       .  S
C548        C549   1.391       .  A
C549        H553   1.081       .  S
C549        C550   1.398       .  A
C550        O554   1.378       .  S
O552        H556   0.992       .  S
O554        H555   0.993       .  S
C557        C558   1.409       .  A
C557        C562   1.434       .  A
C558        H563   1.084       .  S
C558        C559   1.398       .  A
C559        C560   1.412       .  A
C559        O564   1.373       .  S
C560        C561   1.395       .  A
C561        H565   1.082       .  S
C561        C562   1.395       .  A
C562        O566   1.370       .  S
O564        H568   0.993       .  S
O566        H567   0.992       .  S
C569        C570   1.390       .  A
C569        C574   1.390       .  A
C570        H575   1.084       .  S
C570        C571   1.403       .  A
C571        C572   1.446       .  A
C571        O576   1.368       .  S
C572        C573   1.411       .  A
C573        H577   1.049       .  S
C573        C574   1.381       .  A
C574        O578   1.376       .  S
O576        H580   0.992       .  S
O578        H579   0.992       .  S
C581        C582   1.415       .  A
C581        C586   1.427       .  A
C582        H587   1.075       .  S
C582        C583   1.388       .  A
C583        C584   1.399       .  A
C583        O588   1.372       .  S
C584        C585   1.401       .  A
C585        H589   1.082       .  S
C585        C586   1.397       .  A
C586        O590   1.372       .  S
O588        H592   0.991       .  S
O590        H591   0.992       .  S
C593        C594   1.388       .  A
C593        C598   1.420       .  A
C594        H599   1.064       .  S
C594        C595   1.405       .  A
C595        C596   1.428       .  A
C595        O600   1.374       .  S
C596        C597   1.403       .  A
C597        H601   1.077       .  S
C597        C598   1.394       .  A
C598        O602   1.375       .  S
O600        H604   0.993       .  S
O602        H603   0.992       .  S
C605        C606   1.425       .  A
C605        C610   1.418       .  A
C606        H611   1.077       .  S
C606        C607   1.396       .  A
C607        C608   1.395       .  A
C607        O612   1.372       .  S
C608        C609   1.396       .  A
C609        H613   1.079       .  S
C609        C610   1.389       .  A
C610        O614   1.372       .  S
O612        H616   0.992       .  S
O614        H615   0.992       .  S
C617        C618   1.421       .  A
C617        C622   1.422       .  A
C618        H623   1.073       .  S
C618        C619   1.400       .  A
C619        C620   1.402       .  A
C619        O624   1.378       .  S
C620        C621   1.397       .  A
C621        H625   1.079       .  S
C621        C622   1.396       .  A
C622        O626   1.370       .  S
O624        H628   0.992       .  S
O626        H627   0.993       .  S
C629        C630   1.395       .  A
C629        C634   1.407       .  A
C630        H635   1.065       .  S
C630        C631   1.388       .  A
C631        C632   1.426       .  A
C631        O636   1.372       .  S
C632        C633   1.412       .  A
C633        H637   1.079       .  S
C633        C634   1.395       .  A
C634        O638   1.374       .  S
O636        H640   0.991       .  S
O638        H639   0.992   1_545  S
C641        C642   1.410       .  A
C641        C646   1.431       .  A
C642        H647   1.078       .  S
C642        C643   1.389       .  A
C643        C644   1.407       .  A
C643        O648   1.372   1_565  S
C644        C645   1.397       .  A
C645        H649   1.082       .  S
C645        C646   1.402       .  A
C646        O650   1.373       .  S
O648        H652   0.992   1_545  S
O650        H651   0.992       .  S
C653        C654   1.417       .  A
C653        C658   1.422       .  A
C654        H659   1.077       .  S
C654        C655   1.395       .  A
C655        C656   1.401       .  A
C655        O660   1.371       .  S
C656        C657   1.393       .  A
C657        H661   1.082       .  S
C657        C658   1.383       .  A
C658        O662   1.372       .  S
O660        H664   0.992       .  S
O662        H663   0.992       .  S
C665        C666   1.392       .  A
C665        C670   1.407       .  A
C666        H671   1.085       .  S
C666        C667   1.391       .  A
C667        C668   1.428       .  A
C667        O672   1.369       .  S
C668        C669   1.417       .  A
C669        H673   1.080       .  S
C669        C670   1.402       .  A
C670        O674   1.375       .  S
O672        H676   0.993       .  S
O674        H675   0.992       .  S
C677        C678   1.399       .  A
C677        C682   1.403       .  A
C678        H683   1.084       .  S
C678        C679   1.397       .  A
C679        C680   1.423       .  A
C679        O684   1.373       .  S
C680        C681   1.420       .  A
C681        H685   1.080       .  S
C681        C682   1.410       .  A
C682        O686   1.373       .  S
O684        H688   0.993       .  S
O686        H687   0.992       .  S
C689        C690   1.417       .  A
C689        C694   1.417       .  A
C690        H695   1.084       .  S
C690        C691   1.407       .  A
C691        C692   1.421       .  A
C691        O696   1.367       .  S
C692        C693   1.413       .  A
C693        H697   1.067       .  S
C693        C694   1.381       .  A
C694        O698   1.376       .  S
O696        H700   0.992       .  S
O698        H699   0.992       .  S
C701        C702   1.403       .  A
C701        C706   1.404       .  A
C702        H707   1.084       .  S
C702        C703   1.411       .  A
C703        C704   1.423       .  A
C703        O708   1.374       .  S
C704        C705   1.413       .  A
C705        H709   1.083       .  S
C705        C706   1.394       .  A
C706        O710   1.373       .  S
O708        H712   0.992       .  S
O710        H711   0.992   1_455  S
C713        C714   1.410       .  A
C713        C718   1.406       .  A
C714        H719   1.058       .  S
C714        C715   1.408       .  A
C715        C716   1.421       .  A
C715        O720   1.376       .  S
C716        C717   1.418       .  A
C717        H721   1.066       .  S
C717        C718   1.397       .  A
C718        O722   1.373   1_556  S
O720        H724   0.993       .  S
O722        H723   0.991       .  S
C725        C726   1.424       .  A
C725        C730   1.416       .  A
C726        H731   1.080       .  S
C726        C727   1.403       .  A
C727        C728   1.404       .  A
C727        O732   1.372       .  S
C728        C729   1.399       .  A
C729        H733   1.080       .  S
C729        C730   1.381       .  A
C730        O734   1.366       .  S
O732        H736   0.992       .  S
O734        H735   0.993       .  S
C737        C738   1.395       .  A
C737        C742   1.409       .  A
C738        H743   1.084       .  S
C738        C739   1.403       .  A
C739        C740   1.431       .  A
C739        O744   1.378       .  S
C740        C741   1.414       .  A
C741        H745   1.081       .  S
C741        C742   1.401       .  A
C742        O746   1.373       .  S
O744        H748   0.992       .  S
O746        H747   0.992       .  S
C749        C750   1.408       .  A
C749        C754   1.430       .  A
C750        H755   1.079       .  S
C750        C751   1.386       .  A
C751        C752   1.405       .  A
C751        O756   1.375       .  S
C752        C753   1.399       .  A
C753        H757   1.082       .  S
C753        C754   1.406       .  A
C754        O758   1.374       .  S
O756        H760   0.993       .  S
O758        H759   0.993       .  S
C761        C762   1.403       .  A
C761        C766   1.397       .  A
C762        H767   1.082       .  S
C762        C763   1.410       .  A
C763        C764   1.429       .  A
C763        O768   1.374       .  S
C764        C765   1.415       .  A
C765        H769   1.071       .  S
C765        C766   1.383       .  A
C766        O770   1.375       .  S
O768        H772   0.993       .  S
O770        H771   0.992       .  S
C773        C774   1.408       .  A
C773        C778   1.409       .  A
C774        H779   1.079       .  S
C774        C775   1.409       .  A
C775        C776   1.427       .  A
C775        O780   1.371       .  S
C776        C777   1.407       .  A
C777        H781   1.074       .  S
C777        C778   1.394       .  A
C778        O782   1.373       .  S
O780        H784   0.991       .  S
O782        H783   0.991       .  S
C785        C786   1.399       .  A
C785        C790   1.417       .  A
C786        H791   1.085       .  S
C786        C787   1.381       .  A
C787        C788   1.413       .  A
C787        O792   1.369       .  S
C788        C789   1.425       .  A
C789        H793   1.082       .  S
C789        C790   1.417       .  A
C790        O794   1.370       .  S
O792        H796   0.993       .  S
O794        H795   0.992       .  S
C797        C798   1.402       .  A
C797        C802   1.401       .  A
C798        H803   1.085       .  S
C798        C799   1.403       .  A
C799        C800   1.428       .  A
C799        O804   1.375       .  S
C800        C801   1.425       .  A
C801        H805   1.079       .  S
C801        C802   1.399       .  A
C802        O806   1.374       .  S
O804        H808   0.992       .  S
O806        H807   0.992       .  S
C809        C810   1.401       .  A
C809        C814   1.410       .  A
C810        H815   1.084       .  S
C810        C811   1.391       .  A
C811        C812   1.421       .  A
C811        O816   1.373       .  S
C812        C813   1.417       .  A
C813        H817   1.082       .  S
C813        C814   1.402       .  A
C814        O818   1.370       .  S
O816        H820   0.993       .  S
O818        H819   0.992       .  S
C821        C822   1.399       .  A
C821        C826   1.400       .  A
C822        H827   1.084       .  S
C822        C823   1.413       .  A
C823        C824   1.436       .  A
C823        O828   1.369       .  S
C824        C825   1.413       .  A
C825        H829   1.081       .  S
C825        C826   1.387       .  A
C826        O830   1.375       .  S
O828        H832   0.993       .  S
O830        H831   0.992   1_655  S
C833        C834   1.406       .  A
C833        C838   1.408       .  A
C834        H839   1.078       .  S
C834        C835   1.406       .  A
C835        C836   1.424       .  A
C835        O840   1.376       .  S
C836        C837   1.404       .  A
C837        H841   1.074       .  S
C837        C838   1.384       .  A
C838        O842   1.376       .  S
O840        H844   0.992       .  S
O842        H843   0.993   1_455  S
C845        C846   1.410       .  A
C845        C850   1.428       .  A
C846        H851   1.076       .  S
C846        C847   1.393       .  A
C847        C848   1.405       .  A
C847        O852   1.374       .  S
C848        C849   1.399       .  A
C849        H853   1.082       .  S
C849        C850   1.405       .  A
C850        O854   1.377       .  S
O852        H856   0.993   1_554  S
O854        H855   0.992       .  S
C857        C858   1.407       .  A
C857        C862   1.411       .  A
C858        H863   1.084   1_556  S
C858        C859   1.402       .  A
C859        C860   1.425       .  A
C859        O864   1.373       .  S
C860        C861   1.414       .  A
C861        H865   1.081       .  S
C861        C862   1.401       .  A
C862        O866   1.367       .  S
O864        H868   0.992       .  S
O866        H867   0.993       .  S
C869        C870   1.405       .  A
C869        C874   1.437       .  A
C870        H875   1.084       .  S
C870        C871   1.392       .  A
C871        C872   1.411       .  A
C871        O876   1.367       .  S
C872        C873   1.396       .  A
C873        H877   1.083       .  S
C873        C874   1.404       .  A
C874        O878   1.372       .  S
O876        H880   0.992       .  S
O878        H879   0.993       .  S
C881        C882   1.390       .  A
C881        C886   1.389       .  A
C882        H887   1.085       .  S
C882        C883   1.387       .  A
C883        C884   1.430       .  A
C883        O888   1.362       .  S
C884        C885   1.435       .  A
C885        H889   1.076       .  S
C885        C886   1.398       .  A
C886        O890   1.379       .  S
O888        H892   0.993       .  S
O890        H891   0.992       .  S
C893        C894   1.401       .  A
C893        C898   1.402       .  A
C894        H899   1.084       .  S
C894        C895   1.402       .  A
C895        C896   1.424       .  A
C895        O900   1.375       .  S
C896        C897   1.421       .  A
C897        H901   1.079       .  S
C897        C898   1.398       .  A
C898        O902   1.370       .  S
O900        H904   0.992       .  S
O902        H903   0.992       .  S
C905        C906   1.410       .  A
C905        C910   1.415       .  A
C906        H911   1.067       .  S
C906        C907   1.411       .  A
C907        C908   1.420       .  A
C907        O912   1.375       .  S
C908        C909   1.407       .  A
C909        H913   1.080       .  S
C909        C910   1.389       .  A
C910        O914   1.374   1_556  S
O912        H916   0.992       .  S
O914        H915   0.993       .  S
C917        C918   1.409       .  A
C917        C922   1.423       .  A
C918        H923   1.082       .  S
C918        C919   1.395       .  A
C919        C920   1.407       .  A
C919        O924   1.374       .  S
C920        C921   1.402       .  A
C921        H925   1.084       .  S
C921        C922   1.407       .  A
C922        O926   1.373       .  S
O924        H928   0.992       .  S
O926        H927   0.992       .  S
C929        C930   1.416       .  A
C929        C934   1.419       .  A
C930        H935   1.078       .  S
C930        C931   1.400       .  A
C931        C932   1.407       .  A
C931        O936   1.374       .  S
C932        C933   1.398       .  A
C933        H937   1.077       .  S
C933        C934   1.389       .  A
C934        O938   1.373       .  S
O936        H940   0.992       .  S
O938        H939   0.992       .  S
C941        C942   1.411       .  A
C941        C946   1.396       .  A
C942        H947   1.084       .  S
C942        C943   1.408       .  A
C943        C944   1.419       .  A
C943        O948   1.375       .  S
C944        C945   1.422       .  A
C945        H949   1.079       .  S
C945        C946   1.392       .  A
C946        O950   1.371       .  S
O948        H952   0.991       .  S
O950        H951   0.992       .  S
C953        C954   1.409       .  A
C953        C958   1.428       .  A
C954        H959   1.071       .  S
C954        C955   1.372       .  A
C955        C956   1.398       .  A
C955        O960   1.372       .  S
C956        C957   1.422       .  A
C957        H961   1.083       .  S
C957        C958   1.416       .  A
C958        O962   1.366       .  S
O960        H964   0.991       .  S
O962        H963   0.992       .  S
C965        C966   1.418       .  A
C965        C970   1.429       .  A
C966        H971   1.083       .  S
C966        C967   1.404       .  A
C967        C968   1.405       .  A
C967        O972   1.372       .  S
C968        C969   1.397       .  A
C969        H973   1.081       .  S
C969        C970   1.402       .  A
C970        O974   1.375       .  S
O972        H976   0.992       .  S
O974        H975   0.993       .  S
C977        C978   1.400       .  A
C977        C982   1.413       .  A
C978        H983   1.067       .  S
C978        C979   1.378       .  A
C979        C980   1.420       .  A
C979        O984   1.375       .  S
C980        C981   1.416       .  A
C981        H985   1.081       .  S
C981        C982   1.407       .  A
C982        O986   1.371       .  S
O984        H988   0.993       .  S
O986        H987   0.993       .  S
C989        C990   1.394       .  A
C989        C994   1.408       .  A
C990        H995   1.082       .  S
C990        C991   1.394       .  A
C991        C992   1.417       .  A
C991        O996   1.378       .  S
C992        C993   1.416       .  A
C993        H997   1.082       .  S
C993        C994   1.408       .  A
C994        O998   1.371       .  S
O996       H1000   0.992       .  S
O998        H999   0.992       .  S
C1001      C1002   1.406       .  A
C1001      C1006   1.423       .  A
C1002      H1007   1.076       .  S
C1002      C1003   1.383       .  A
C1003      C1004   1.404       .  A
C1003      O1008   1.376       .  S
C1004      C1005   1.408       .  A
C1005      H1009   1.069       .  S
C1005      C1006   1.413       .  A
C1006      O1010   1.375       .  S
O1008      H1012   0.992       .  S
O1010      H1011   0.992       .  S
C1013      C1014   1.399       .  A
C1013      C1018   1.410       .  A
C1014      H1019   1.078       .  S
C1014      C1015   1.403       .  A
C1015      C1016   1.431       .  A
C1015      O1020   1.373       .  S
C1016      C1017   1.411       .  A
C1017      H1021   1.078       .  S
C1017      C1018   1.396       .  A
C1018      O1022   1.374       .  S
O1020      H1024   0.992       .  S
O1022      H1023   0.993   1_455  S
C1025      C1026   1.406       .  A
C1025      C1030   1.406       .  A
C1026      H1031   1.080       .  S
C1026      C1027   1.398       .  A
C1027      C1028   1.416       .  A
C1027      O1032   1.373       .  S
C1028      C1029   1.421       .  A
C1029      H1033   1.080       .  S
C1029      C1030   1.405       .  A
C1030      O1034   1.372       .  S
O1032      H1036   0.992       .  S
O1034      H1035   0.992       .  S
C1037      C1038   1.394       .  A
C1037      C1042   1.402       .  A
C1038      H1043   1.084       .  S
C1038      C1039   1.399       .  A
C1039      C1040   1.430       .  A
C1039      O1044   1.369       .  S
C1040      C1041   1.412       .  A
C1041      H1045   1.083       .  S
C1041      C1042   1.380       .  A
C1042      O1046   1.373       .  S
O1044      H1048   0.992       .  S
O1046      H1047   0.991       .  S
C1049      C1050   1.391       .  A
C1049      C1054   1.389       .  A
C1050      H1055   1.084       .  S
C1050      C1051   1.399       .  A
C1051      C1052   1.427       .  A
C1051      O1056   1.373       .  S
C1052      C1053   1.431       .  A
C1053      H1057   1.072       .  S
C1053      C1054   1.394       .  A
C1054      O1058   1.375       .  S
O1056      H1060   0.993       .  S
O1058      H1059   0.992       .  S
C1061      C1062   1.406       .  A
C1061      C1066   1.409       .  A
C1062      H1067   1.064       .  S
C1062      C1063   1.401       .  A
C1063      C1064   1.418       .  A
C1063      O1068   1.371       .  S
C1064      C1065   1.406       .  A
C1065      H1069   1.074       .  S
C1065      C1066   1.387       .  A
C1066      O1070   1.374   1_565  S
O1068      H1072   0.992       .  S
O1070      H1071   0.993       .  S
C1073      C1074   1.399       .  A
C1073      C1078   1.403       .  A
C1074      H1079   1.083       .  S
C1074      C1075   1.398       .  A
C1075      C1076   1.423       .  A
C1075      O1080   1.371       .  S
C1076      C1077   1.409       .  A
C1077      H1081   1.081       .  S
C1077      C1078   1.390       .  A
C1078      O1082   1.371       .  S
O1080      H1084   0.992       .  S
O1082      H1083   0.992       .  S
C1085      C1086   1.414       .  A
C1085      C1090   1.423       .  A
C1086      H1091   1.083       .  S
C1086      C1087   1.392       .  A
C1087      C1088   1.401       .  A
C1087      O1092   1.373       .  S
C1088      C1089   1.402       .  A
C1089      H1093   1.082       .  S
C1089      C1090   1.408       .  A
C1090      O1094   1.374       .  S
O1092      H1096   0.992   1_545  S
O1094      H1095   0.992       .  S
C1097      C1098   1.414       .  A
C1097      C1102   1.423       .  A
C1098      H1103   1.083       .  S
C1098      C1099   1.391       .  A
C1099      C1100   1.401       .  A
C1099      O1104   1.375       .  S
C1100      C1101   1.403       .  A
C1101      H1105   1.084       .  S
C1101      C1102   1.397       .  A
C1102      O1106   1.370       .  S
O1104      H1108   0.992       .  S
O1106      H1107   0.992       .  S
C1109      C1110   1.391       .  A
C1109      C1114   1.404       .  A
C1110      H1115   1.084       .  S
C1110      C1111   1.395       .  A
C1111      C1112   1.426       .  A
C1111      O1116   1.376       .  S
C1112      C1113   1.409       .  A
C1113      H1117   1.083       .  S
C1113      C1114   1.392       .  A
C1114      O1118   1.373       .  S
O1116      H1120   0.992       .  S
O1118      H1119   0.992   1_556  S
C1121      C1122   1.421       .  A
C1121      C1126   1.418       .  A
C1122      H1127   1.080       .  S
C1122      C1123   1.400       .  A
C1123      C1124   1.403       .  A
C1123      O1128   1.372       .  S
C1124      C1125   1.399       .  A
C1125      H1129   1.082       .  S
C1125      C1126   1.385       .  A
C1126      O1130   1.372       .  S
O1128      H1132   0.992       .  S
O1130      H1131   0.993       .  S
C1133      C1134   1.394       .  A
C1133      C1138   1.404       .  A
C1134      H1139   1.083       .  S
C1134      C1135   1.405       .  A
C1135      C1136   1.434       .  A
C1135      O1140   1.374       .  S
C1136      C1137   1.409       .  A
C1137      H1141   1.083       .  S
C1137      C1138   1.384       .  A
C1138      O1142   1.370       .  S
O1140      H1144   0.993       .  S
O1142      H1143   0.992       .  S
C1145      C1146   1.399       .  A
C1145      C1150   1.401       .  A
C1146      H1151   1.084       .  S
C1146      C1147   1.403       .  A
C1147      C1148   1.425       .  A
C1147      O1152   1.379       .  S
C1148      C1149   1.420       .  A
C1149      H1153   1.078       .  S
C1149      C1150   1.396       .  A
C1150      O1154   1.371       .  S
O1152      H1156   0.992       .  S
O1154      H1155   0.992       .  S
C1157      C1158   1.412       .  A
C1157      C1162   1.425       .  A
C1158      H1163   1.071       .  S
C1158      C1159   1.390       .  A
C1159      C1160   1.396       .  A
C1159      O1164   1.380       .  S
C1160      C1161   1.401       .  A
C1161      H1165   1.079       .  S
C1161      C1162   1.405       .  A
C1162      O1166   1.371       .  S
O1164      H1168   0.992       .  S
O1166      H1167   0.992       .  S
C1169      C1170   1.405       .  A
C1169      C1174   1.423       .  A
C1170      H1175   1.083       .  S
C1170      C1171   1.402       .  A
C1171      C1172   1.424       .  A
C1171      O1176   1.373       .  S
C1172      C1173   1.406       .  A
C1173      H1177   1.071       .  S
C1173      C1174   1.400       .  A
C1174      O1178   1.372       .  S
O1176      H1180   0.992       .  S
O1178      H1179   0.992       .  S
C1181      C1182   1.418       .  A
C1181      C1186   1.427       .  A
C1182      H1187   1.074       .  S
C1182      C1183   1.393       .  A
C1183      C1184   1.400       .  A
C1183      O1188   1.378       .  S
C1184      C1185   1.390       .  A
C1185      H1189   1.080       .  S
C1185      C1186   1.397       .  A
C1186      O1190   1.381       .  S
O1188      H1192   0.992       .  S
O1190      H1191   0.993       .  S
C1193      C1194   1.409       .  A
C1193      C1198   1.434       .  A
C1194      H1199   1.080       .  S
C1194      C1195   1.396       .  A
C1195      C1196   1.411       .  A
C1195      O1200   1.375       .  S
C1196      C1197   1.396       .  A
C1197      H1201   1.083       .  S
C1197      C1198   1.397       .  A
C1198      O1202   1.371       .  S
O1200      H1204   0.992       .  S
O1202      H1203   0.991       .  S
C1205      C1206   1.421       .  A
C1205      C1210   1.424       .  A
C1206      H1211   1.078       .  S
C1206      C1207   1.393       .  A
C1207      C1208   1.396       .  A
C1207      O1212   1.372       .  S
C1208      C1209   1.392       .  A
C1209      H1213   1.085       .  S
C1209      C1210   1.392       .  A
C1210      O1214   1.377       .  S
O1212      H1216   0.992       .  S
O1214      H1215   0.993       .  S
C1217      C1218   1.393       .  A
C1217      C1222   1.410       .  A
C1218      H1223   1.069       .  S
C1218      C1219   1.388       .  A
C1219      C1220   1.427       .  A
C1219      O1224   1.370       .  S
C1220      C1221   1.413       .  A
C1221      H1225   1.083       .  S
C1221      C1222   1.397       .  A
C1222      O1226   1.372       .  S
O1224      H1228   0.992       .  S
O1226      H1227   0.992       .  S
C1229      C1230   1.398       .  A
C1229      C1234   1.400       .  A
C1230      H1235   1.084       .  S
C1230      C1231   1.393       .  A
C1231      C1232   1.422       .  A
C1231      O1236   1.375       .  S
C1232      C1233   1.423       .  A
C1233      H1237   1.080       .  S
C1233      C1234   1.399       .  A
C1234      O1238   1.373       .  S
O1236      H1240   0.992       .  S
O1238      H1239   0.992       .  S
C1241      C1242   1.413       .  A
C1241      C1246   1.426       .  A
C1242      H1247   1.077       .  S
C1242      C1243   1.412       .  A
C1243      C1244   1.424       .  A
C1243      O1248   1.373       .  S
C1244      C1245   1.383       .  A
C1245      H1249   1.084       .  S
C1245      C1246   1.375       .  A
C1246      O1250   1.371       .  S
O1248      H1252   0.992       .  S
O1250      H1251   0.993       .  S
C1253      C1254   1.416       .  A
C1253      C1258   1.418       .  A
C1254      H1259   1.079       .  S
C1254      C1255   1.393       .  A
C1255      C1256   1.402       .  A
C1255      O1260   1.371       .  S
C1256      C1257   1.402       .  A
C1257      H1261   1.083       .  S
C1257      C1258   1.398       .  A
C1258      O1262   1.371       .  S
O1260      H1264   0.992       .  S
O1262      H1263   0.993       .  S
C1265      C1266   1.425       .  A
C1265      C1270   1.424       .  A
C1266      H1271   1.078       .  S
C1266      C1267   1.394       .  A
C1267      C1268   1.397       .  A
C1267      O1272   1.372       .  S
C1268      C1269   1.403       .  A
C1269      H1273   1.084       .  S
C1269      C1270   1.400       .  A
C1270      O1274   1.372       .  S
O1272      H1276   0.992       .  S
O1274      H1275   0.992       .  S
C1277      C1278   1.396       .  A
C1277      C1282   1.413       .  A
C1278      H1283   1.082       .  S
C1278      C1279   1.404       .  A
C1279      C1280   1.437       .  A
C1279      O1284   1.375       .  S
C1280      C1281   1.408       .  A
C1281      H1285   1.082       .  S
C1281      C1282   1.394       .  A
C1282      O1286   1.368       .  S
O1284      H1288   0.992       .  S
O1286      H1287   0.992       .  S
C1289      C1290   1.399       .  A
C1289      C1294   1.401       .  A
C1290      H1295   1.072       .  S
C1290      C1291   1.389       .  A
C1291      C1292   1.413       .  A
C1291      O1296   1.376       .  S
C1292      C1293   1.421       .  A
C1293      H1297   1.076       .  S
C1293      C1294   1.394       .  A
C1294      O1298   1.372       .  S
O1296      H1300   0.992       .  S
O1298      H1299   0.992       .  S
C1301      C1302   1.397       .  A
C1301      C1306   1.404       .  A
C1302      H1307   1.083       .  S
C1302      C1303   1.407       .  A
C1303      C1304   1.433       .  A
C1303      O1308   1.374       .  S
C1304      C1305   1.408       .  A
C1305      H1309   1.083       .  S
C1305      C1306   1.390       .  A
C1306      O1310   1.375       .  S
O1308      H1312   0.992       .  S
O1310      H1311   0.993       .  S
C1313      C1314   1.430       .  A
C1313      C1318   1.411       .  A
C1314      H1319   1.083       .  S
C1314      C1315   1.426       .  A
C1315      C1316   1.405       .  A
C1315      O1320   1.379       .  S
C1316      C1317   1.404       .  A
C1317      H1321   1.076       .  S
C1317      C1318   1.365       .  A
C1318      O1322   1.364       .  S
O1320      H1324   0.992       .  S
O1322      H1323   0.992       .  S
C1325      C1326   1.417       .  A
C1325      C1330   1.417       .  A
C1326      H1331   1.080       .  S
C1326      C1327   1.403       .  A
C1327      C1328   1.403       .  A
C1327      O1332   1.372       .  S
C1328      C1329   1.399       .  A
C1329      H1333   1.082       .  S
C1329      C1330   1.388       .  A
C1330      O1334   1.377       .  S
O1332      H1336   0.992       .  S
O1334      H1335   0.992       .  S
C1337      C1338   1.411       .  A
C1337      C1342   1.431       .  A
C1338      H1343   1.084       .  S
C1338      C1339   1.398       .  A
C1339      C1340   1.408       .  A
C1339      O1344   1.377       .  S
C1340      C1341   1.399       .  A
C1341      H1345   1.083       .  S
C1341      C1342   1.399       .  A
C1342      O1346   1.368       .  S
O1344      H1348   0.993       .  S
O1346      H1347   0.992       .  S
C1349      C1350   1.397       .  A
C1349      C1354   1.406       .  A
C1350      H1355   1.083       .  S
C1350      C1351   1.401       .  A
C1351      C1352   1.433       .  A
C1351      O1356   1.371       .  S
C1352      C1353   1.407       .  A
C1353      H1357   1.082       .  S
C1353      C1354   1.392       .  A
C1354      O1358   1.373       .  S
O1356      H1360   0.992       .  S
O1358      H1359   0.992       .  S
C1361      C1362   1.402       .  A
C1361      C1366   1.401       .  A
C1362      H1367   1.084       .  S
C1362      C1363   1.402       .  A
C1363      C1364   1.424       .  A
C1363      O1368   1.371       .  S
C1364      C1365   1.422       .  A
C1365      H1369   1.077       .  S
C1365      C1366   1.397       .  A
C1366      O1370   1.376       .  S
O1368      H1372   0.993       .  S
O1370      H1371   0.992       .  S
C1373      C1374   1.415       .  A
C1373      C1378   1.430       .  A
C1374      H1379   1.074       .  S
C1374      C1375   1.388       .  A
C1375      C1376   1.397       .  A
C1375      O1380   1.373       .  S
C1376      C1377   1.400       .  A
C1377      H1381   1.084       .  S
C1377      C1378   1.406       .  A
C1378      O1382   1.376       .  S
O1380      H1384   0.991       .  S
O1382      H1383   0.993       .  S
C1385      C1386   1.404       .  A
C1385      C1390   1.408       .  A
C1386      H1391   1.078       .  S
C1386      C1387   1.400       .  A
C1387      C1388   1.424       .  A
C1387      O1392   1.371       .  S
C1388      C1389   1.406       .  A
C1389      H1393   1.075       .  S
C1389      C1390   1.386       .  A
C1390      O1394   1.374       .  S
O1392      H1396   0.992       .  S
O1394      H1395   0.991       .  S
C1397      C1398   1.416       .  A
C1397      C1402   1.421       .  A
C1398      H1403   1.081       .  S
C1398      C1399   1.398       .  A
C1399      C1400   1.408       .  A
C1399      O1404   1.375       .  S
C1400      C1401   1.406       .  A
C1401      H1405   1.084       .  S
C1401      C1402   1.411       .  A
C1402      O1406   1.376       .  S
O1404      H1408   0.992       .  S
O1406      H1407   0.992       .  S
C1409      C1410   1.403       .  A
C1409      C1414   1.409       .  A
C1410      H1415   1.082       .  S
C1410      C1411   1.404       .  A
C1411      C1412   1.430       .  A
C1411      O1416   1.370       .  S
C1412      C1413   1.410       .  A
C1413      H1417   1.082       .  S
C1413      C1414   1.396       .  A
C1414      O1418   1.375       .  S
O1416      H1420   0.992       .  S
O1418      H1419   0.993       .  S
C1421      C1422   1.425       .  A
C1421      C1426   1.421       .  A
C1422      H1427   1.075       .  S
C1422      C1423   1.400       .  A
C1423      C1424   1.398       .  A
C1423      O1428   1.372       .  S
C1424      C1425   1.399       .  A
C1425      H1429   1.077       .  S
C1425      C1426   1.400       .  A
C1426      O1430   1.377       .  S
O1428      H1432   0.992       .  S
O1430      H1431   0.992       .  S
C1433      C1434   1.408       .  A
C1433      C1438   1.402       .  A
C1434      H1439   1.083       .  S
C1434      C1435   1.394       .  A
C1435      C1436   1.415       .  A
C1435      O1440   1.373       .  S
C1436      C1437   1.423       .  A
C1437      H1441   1.081       .  S
C1437      C1438   1.399       .  A
C1438      O1442   1.373       .  S
O1440      H1444   0.992       .  S
O1442      H1443   0.992       .  S
