geometry optimzed in LAMMPS
_audit_creation_date              2020-12-01 
_audit_creation_method            'lammps2cif' 
_symmetry_space_group_name_H-M    'P1' 
_symmetry_Int_Tables_number       1 
_symmetry_cell_setting            triclinic 
loop_ 
_symmetry_equiv_pos_as_xyz 
  x,y,z 
_cell_length_a                    43.08852219 
_cell_length_b                    43.050909938503175 
_cell_length_c                    43.188655879889126 
_cell_angle_alpha                 89.92885080207557 
_cell_angle_beta                  90.03794194730737 
_cell_angle_gamma                 89.88574384108647 
loop_ 
_atom_site_label 
_atom_site_type_symbol 
_atom_site_fract_x 
_atom_site_fract_y 
_atom_site_fract_z 
_atom_site_charge 
O1          O  0.53331937  0.47495868  0.61584464    -0.71800
O2          O  0.46698818  0.53319965  0.61427768    -0.72000
O3          O  0.52905523  0.53710129  0.61800111    -0.71900
O4          O  0.47151568  0.47111414  0.61193687    -0.71900
O5          O  0.46792363  0.46890454  0.66200386    -0.71900
O6          O  0.52669103  0.53521598  0.66815726    -0.71900
O7          O  0.46441072  0.53167146  0.66445853    -0.71800
O8          O  0.53049606  0.47274643  0.66598495    -0.72000
V9          V  0.50015328  0.50408848  0.61605215     1.35200
V10         V  0.49738824  0.50214399  0.66422501     1.35200
C11         C  0.54320976  0.46381796  0.64112156     0.77400
C12         C  0.45451301  0.54258661  0.63908052     0.77500
C13         C  0.53794838  0.54739484  0.64392527     0.77400
C14         C  0.45993449  0.45854173  0.63570786     0.77300
O15         O  0.81367304  0.47121805  0.35285176    -0.71800
O16         O  0.80867024  0.53912483  0.29603378    -0.72000
O17         O  0.81084288  0.53390700  0.35830055    -0.71900
O18         O  0.81126121  0.47658129  0.29045773    -0.71900
O19         O  0.76093008  0.47565872  0.29182172    -0.71900
O20         O  0.76066657  0.53024998  0.36026600    -0.71900
O21         O  0.75841622  0.53724484  0.29867153    -0.71800
O22         O  0.76340013  0.46840634  0.35338006    -0.72000
V23         V  0.81022205  0.50513196  0.32446928     1.35200
V24         V  0.76191786  0.50292999  0.32603623     1.35200
C25         C  0.78929460  0.45805564  0.36262959     0.77400
C26         C  0.78255363  0.54980383  0.28771546     0.77500
C27         C  0.78541767  0.54189373  0.37077117     0.77400
C28         C  0.78588697  0.46670810  0.27933876     0.77300
O29         O  0.53444086  0.81297712  0.30389305    -0.71800
O30         O  0.47226760  0.82069532  0.36604715    -0.72000
O31         O  0.53506764  0.81600692  0.36653763    -0.71900
O32         O  0.47183582  0.81710561  0.30383141    -0.71900
O33         O  0.46777800  0.76709806  0.30860357    -0.71900
O34         O  0.53242804  0.76569119  0.36717664    -0.71900
O35         O  0.47056017  0.77046996  0.37016288    -0.71800
O36         O  0.52954556  0.76282823  0.30531452    -0.72000
V37         V  0.50343366  0.81582022  0.33515166     1.35200
V38         V  0.50020869  0.76757922  0.33777487     1.35200
C39         C  0.54202120  0.78659489  0.29342293     0.77400
C40         C  0.46067239  0.79683056  0.37860813     0.77500
C41         C  0.54456351  0.79027186  0.37740291     0.77400
C42         C  0.45858438  0.79197966  0.29612940     0.77300
O43         O  0.23439735  0.47537565  0.35473525    -0.71800
O44         O  0.22881186  0.53614684  0.29135266    -0.72000
O45         O  0.23221738  0.53724767  0.35344741    -0.71900
O46         O  0.23107158  0.47448961  0.29243221    -0.71900
O47         O  0.18081339  0.47205736  0.29507497    -0.71900
O48         O  0.18195890  0.53625724  0.35640909    -0.71900
O49         O  0.17852186  0.53470079  0.29382219    -0.71800
O50         O  0.18417727  0.47361703  0.35795738    -0.72000
V51         V  0.23055467  0.50572288  0.32309469     1.35200
V52         V  0.18225985  0.50412566  0.32577357     1.35200
C53         C  0.21042617  0.46457825  0.36772453     0.77400
C54         C  0.20283923  0.54560255  0.28144419     0.77500
C55         C  0.20754317  0.54754743  0.36547603     0.77400
C56         C  0.20591982  0.46316973  0.28259514     0.77300
O57         O  0.47145705  0.16711276  0.36260346    -0.71800
O58         O  0.53023939  0.16558664  0.29650238    -0.72000
O59         O  0.53406780  0.16249564  0.35857099    -0.71900
O60         O  0.46768489  0.17049497  0.29991870    -0.71900
O61         O  0.47452660  0.22040705  0.29996564    -0.71900
O62         O  0.53448474  0.21268571  0.36374893    -0.71900
O63         O  0.53679458  0.21527748  0.30174115    -0.71800
O64         O  0.47260203  0.21750569  0.36194517    -0.72000
V65         V  0.50085631  0.16729066  0.32944479     1.35200
V66         V  0.50451638  0.21547068  0.33174023     1.35200
C67         C  0.46165182  0.19272493  0.37326355     0.77400
C68         C  0.54439519  0.19009763  0.28864699     0.77500
C69         C  0.54515525  0.18645916  0.37147723     0.77400
C70         C  0.46017784  0.19705286  0.28952553     0.77300
O71         O  0.46825902  0.46486149  0.04482709    -0.71800
O72         O  0.53342673  0.52277591  0.05370618    -0.72000
O73         O  0.47152964  0.52684726  0.04838273    -0.71900
O74         O  0.53032179  0.46069043  0.04958066    -0.71900
O75         O  0.53716794  0.46628566  0.00009963    -0.71900
O76         O  0.47308670  0.52723094  0.99815377    -0.71900
O77         O  0.53556013  0.52867416  0.00384214    -0.71800
O78         O  0.47480118  0.46451001  0.99497830    -0.72000
V79         V  0.50096518  0.49384068  0.04813948     1.35200
V80         V  0.50504200  0.49664164  0.00015047     1.35200
C81         C  0.46078365  0.45420376  0.01865360     0.77400
C82         C  0.54536947  0.53606493  0.03052548     0.77500
C83         C  0.46181237  0.53796074  0.02299180     0.77400
C84         C  0.54435118  0.45268380  0.02507480     0.77300
C85         C  0.74039543  0.73581011  0.57644543    -0.02500
C86         C  0.76303087  0.75710555  0.59993140    -0.02500
C87         C  0.73312564  0.26547076  0.56881860    -0.02500
C88         C  0.75858897  0.24605507  0.59125652    -0.02500
C89         C  0.25826510  0.73848930  0.56824391    -0.02500
C90         C  0.23796226  0.76260384  0.59120018    -0.02500
C91         C  0.73339393  0.74536879  0.08651350    -0.02500
C92         C  0.75486742  0.76770957  0.06281650    -0.02500
C93         C  0.26208537  0.26705406  0.56812553    -0.02500
C94         C  0.23909659  0.24315069  0.58852428    -0.02500
C95         C  0.27228448  0.74101498  0.08798502    -0.02500
C96         C  0.24993300  0.76385165  0.06557077    -0.02500
C97         C  0.73989710  0.25727530  0.09418555    -0.02500
C98         C  0.76243607  0.23419755  0.07224639    -0.02500
C99         C  0.26352596  0.26102474  0.08906067    -0.02500
C100        C  0.24151113  0.23838373  0.06628795    -0.02500
O101        O  0.32246516  0.97173408  0.85590845    -0.71800
O102        O  0.33093127  0.03485862  0.79423340    -0.72000
O103        O  0.33028738  0.03352539  0.85685558    -0.71900
O104        O  0.32306190  0.97222198  0.79343518    -0.71900
O105        O  0.27298902  0.97751304  0.79470393    -0.71900
O106        O  0.28057641  0.04162506  0.85448670    -0.71900
O107        O  0.28077599  0.03931798  0.79246327    -0.71800
O108        O  0.27273479  0.97981585  0.85665905    -0.72000
V109        V  0.32578781  0.00324395  0.82498562     1.35200
V110        V  0.27779033  0.00945503  0.82454006     1.35200
C111        C  0.29609511  0.96545829  0.86721444     0.77400
C112        C  0.30710234  0.04777325  0.78273888     0.77500
C113        C  0.30656369  0.04792273  0.86653988     0.77400
C114        C  0.29657628  0.96372876  0.78393109     0.77300
O115        O  0.96565105  0.26248565  0.85088796    -0.71800
O116        O  0.02817407  0.27289624  0.78997844    -0.72000
O117        O  0.02798248  0.26249781  0.85149383    -0.71900
O118        O  0.96590583  0.27316666  0.78960912    -0.71900
O119        O  0.96605952  0.32289048  0.79804936    -0.71900
O120        O  0.02755575  0.31210350  0.86038244    -0.71900
O121        O  0.02914248  0.32250511  0.79901489    -0.71800
O122        O  0.96507707  0.31219354  0.85918909    -0.72000
V123        V  0.99697084  0.26875202  0.82065602     1.35200
V124        V  0.99698289  0.31648787  0.82889951     1.35200
C125        C  0.95445362  0.28547231  0.86529694     0.77400
C126        C  0.03965052  0.29929102  0.78434019     0.77500
C127        C  0.03817794  0.28544665  0.86673209     0.77400
C128        C  0.95501312  0.29983359  0.78366767     0.77300
O129        O  0.03062855  0.96419624  0.09759204    -0.71800
O130        O  0.97391111  0.03069153  0.09988398    -0.72000
O131        O  0.03569793  0.02632874  0.09861867    -0.71900
O132        O  0.96865502  0.96874067  0.09951572    -0.71900
O133        O  0.97220972  0.96548090  0.14955209    -0.71900
O134        O  0.03415540  0.02817134  0.14885920    -0.71900
O135        O  0.97197252  0.02845301  0.15003692    -0.71800
O136        O  0.03489800  0.96501801  0.14763775    -0.72000
V137        V  0.00225360  0.99741072  0.09992487     1.35200
V138        V  0.00334358  0.99670736  0.14815526     1.35200
C139        C  0.04294063  0.95338756  0.12183291     0.77400
C140        C  0.96309766  0.04107936  0.12496456     0.77500
C141        C  0.04530647  0.03812890  0.12367940     0.77400
C142        C  0.95925795  0.95695618  0.12470301     0.77300
O143        O  0.71248437  0.97113218  0.86484961    -0.71800
O144        O  0.72261535  0.02768699  0.79859554    -0.72000
O145        O  0.71771770  0.03266014  0.86035535    -0.71900
O146        O  0.71699231  0.96583399  0.80288052    -0.71900
O147        O  0.66733877  0.97176562  0.79672274    -0.71900
O148        O  0.66746820  0.03536130  0.85808166    -0.71900
O149        O  0.67273446  0.03412632  0.79568905    -0.71800
O150        O  0.66240850  0.97275232  0.85901927    -0.72000
V151        V  0.71643833  0.99938796  0.83153596     1.35200
V152        V  0.66838386  0.00343210  0.82746334     1.35200
C153        C  0.68591114  0.96216357  0.87320731     0.77400
C154        C  0.69965099  0.04095885  0.78603402     0.77500
C155        C  0.69270488  0.04498305  0.86961876     0.77400
C156        C  0.69212920  0.95772877  0.78951676     0.77300
O157        O  0.02992340  0.96594624  0.56673381    -0.71800
O158        O  0.97425309  0.03437166  0.57182122    -0.72000
O159        O  0.96831942  0.97249799  0.57054819    -0.71900
O160        O  0.03608178  0.02779150  0.56826207    -0.71900
O161        O  0.03136042  0.03236739  0.51842376    -0.71900
O162        O  0.96693293  0.97105550  0.52035729    -0.71900
O163        O  0.96872791  0.03400111  0.52188760    -0.71800
O164        O  0.02995342  0.96981118  0.51658868    -0.72000
V165        V  0.00207002  0.00020454  0.56830859     1.35200
V166        V  0.99925727  0.00173134  0.52016936     1.35200
C167        C  0.04010397  0.95673023  0.54086096     0.77400
C168        C  0.96155478  0.04564955  0.54785144     0.77500
C169        C  0.95628182  0.96178210  0.54614657     0.77400
C170        C  0.04514347  0.03993438  0.54322648     0.77300
O171        O  0.04117653  0.72405638  0.86447702    -0.71800
O172        O  0.97451325  0.72853809  0.80742680    -0.72000
O173        O  0.97946445  0.72932430  0.86898816    -0.71900
O174        O  0.03633197  0.72348162  0.80280799    -0.71900
O175        O  0.03522838  0.67316415  0.80559786    -0.71900
O176        O  0.97246678  0.67942754  0.86811551    -0.71900
O177        O  0.97256103  0.67819014  0.80553268    -0.71800
O178        O  0.03494331  0.67416229  0.86823524    -0.72000
V179        V  0.00778895  0.72531244  0.83592838     1.35200
V180        V  0.00387983  0.67708351  0.83683249     1.35200
C181        C  0.04910432  0.69849845  0.87659635     0.77400
C182        C  0.96234016  0.70424216  0.79641675     0.77500
C183        C  0.96572382  0.70569951  0.87955084     0.77400
C184        C  0.04616472  0.69755186  0.79326230     0.77300
C185        C  0.22130001  0.25654711  0.04106156    -0.03200
C186        C  0.20145840  0.28202318  0.04836113    -0.05800
C187        C  0.17850535  0.29282956  0.02779114    -0.20900
C188        C  0.17343400  0.27801969  0.99942710     0.24800
C189        C  0.19318671  0.25369321  0.99111698    -0.18500
C190        C  0.21564470  0.24271699  0.01151713    -0.08400
C191        C  0.14705030  0.28726000  0.97897032    -0.18700
C192        C  0.13216460  0.26606123  0.96130773    -0.23500
C193        C  0.10721408  0.27247993  0.93820137     0.26900
C194        C  0.09474999  0.24704532  0.92206729    -0.20300
C195        C  0.07241482  0.25128594  0.89899818    -0.09900
C196        C  0.06178859  0.28116457  0.89142458    -0.10500
C197        C  0.07388842  0.30673296  0.90772682    -0.03400
C198        C  0.09642262  0.30249593  0.93084474    -0.18500
H199        H  0.20246972  0.29365681  0.07012666     0.10600
H200        H  0.16367211  0.31191339  0.03477776     0.10600
H201        H  0.19069002  0.24209087  0.96903203     0.10300
H202        H  0.22684109  0.22161896  0.00401833     0.11400
H203        H  0.13965123  0.31132696  0.97921210     0.11500
H204        H  0.13885805  0.24184365  0.96371650     0.13400
H205        H  0.10258113  0.22364355  0.92709297     0.09900
H206        H  0.06354822  0.23108285  0.88700583     0.12000
H207        H  0.06610917  0.33008175  0.90245166     0.08600
H208        H  0.10538946  0.32279110  0.94247033     0.11400
C209        C  0.26337194  0.21614667  0.04672363    -0.03200
C210        C  0.28289016  0.22872350  0.02326411    -0.05800
C211        C  0.29663066  0.21009562  0.00057811    -0.20900
C212        C  0.29218932  0.17799191  0.00046370     0.24800
C213        C  0.27521325  0.16458175  0.02461404    -0.18500
C214        C  0.26084020  0.18313598  0.04699726    -0.08400
C215        C  0.30051083  0.15994901  0.97234096    -0.18700
C216        C  0.30709904  0.12939054  0.97269011    -0.23500
C217        C  0.30904653  0.11080768  0.94382562     0.26900
C218        C  0.33110486  0.08693556  0.94124425    -0.20300
C219        C  0.33132079  0.06742195  0.91528764    -0.09900
C220        C  0.30873385  0.07076363  0.89201914    -0.10500
C221        C  0.28677694  0.09478337  0.89453445    -0.03400
C222        C  0.28713728  0.11483440  0.92000110    -0.18500
H223        H  0.28424584  0.25331757  0.01921709     0.10600
H224        H  0.30906819  0.22113934  0.98176374     0.10600
H225        H  0.27063660  0.13986237  0.02479847     0.10300
H226        H  0.24590324  0.17071400  0.06250211     0.11400
H227        H  0.29988332  0.17208217  0.95025774     0.11500
H228        H  0.31059808  0.11750025  0.99461413     0.13400
H229        H  0.34796360  0.08320251  0.95949536     0.09900
H230        H  0.34829556  0.04887630  0.91405742     0.12000
H231        H  0.26904049  0.09777384  0.87699157     0.08600
H232        H  0.26942354  0.13262840  0.92172009     0.11400
C233        C  0.21771312  0.21748762  0.08519717    -0.03200
C234        C  0.22730878  0.19663158  0.10892048    -0.05800
C235        C  0.20746166  0.17363405  0.12061197    -0.20900
C236        C  0.17678852  0.17134073  0.11032079     0.24800
C237        C  0.16575130  0.19354753  0.08947269    -0.18500
C238        C  0.18556454  0.21591320  0.07716836    -0.08400
C239        C  0.15797822  0.14345477  0.11789204    -0.18700
C240        C  0.12683528  0.14423348  0.11991938    -0.23500
C241        C  0.10790295  0.11568218  0.12228206     0.26900
C242        C  0.08383615  0.11418076  0.14401532    -0.20300
C243        C  0.06433202  0.08827896  0.14514019    -0.09900
C244        C  0.06775574  0.06400260  0.12368795    -0.10500
C245        C  0.09159922  0.06565693  0.10160805    -0.03400
C246        C  0.11185754  0.09109915  0.10122249    -0.18500
H247        H  0.25104292  0.19467397  0.11596688     0.10600
H248        H  0.21663940  0.15654038  0.13663117     0.10600
H249        H  0.14222763  0.19235026  0.08071856     0.10300
H250        H  0.17491372  0.23045151  0.05990992     0.11400
H251        H  0.17000341  0.12141998  0.12078026     0.11500
H252        H  0.11474686  0.16639731  0.11995094     0.13400
H253        H  0.08012224  0.13311514  0.16009823     0.09900
H254        H  0.04581691  0.08772140  0.16208816     0.12000
H255        H  0.09451534  0.04731705  0.08470858     0.08600
H256        H  0.12989161  0.09214033  0.08379680     0.11400
C257        C  0.74446836  0.20576326  0.05692471    -0.03200
C258        C  0.75930923  0.17627238  0.05376315    -0.05800
C259        C  0.74807793  0.15316182  0.03425219    -0.20900
C260        C  0.72212589  0.15816680  0.01558915     0.24800
C261        C  0.70602014  0.18633193  0.01878724    -0.18500
C262        C  0.71695646  0.20957599  0.03889929    -0.08400
C263        C  0.71509892  0.13416594  0.99166965    -0.18700
C264        C  0.69559886  0.13752308  0.96743188    -0.23500
C265        C  0.69478316  0.11417650  0.94195343     0.26900
C266        C  0.66674651  0.10708456  0.92696079    -0.20300
C267        C  0.66589305  0.08473046  0.90329861    -0.09900
C268        C  0.69322753  0.06952626  0.89377993    -0.10500
C269        C  0.72137791  0.07749928  0.90811734    -0.03400
C270        C  0.72216188  0.09950278  0.93184328    -0.18500
H271        H  0.78145283  0.17095270  0.06410777     0.10600
H272        H  0.76128542  0.13178723  0.03221897     0.10600
H273        H  0.68570326  0.19121957  0.00493027     0.10300
H274        H  0.70454641  0.23107554  0.03785674     0.11400
H275        H  0.72862100  0.11285562  0.99299075     0.11500
H276        H  0.68044039  0.15757409  0.96568599     0.13400
H277        H  0.64541634  0.11840305  0.93398238     0.09900
H278        H  0.64385524  0.07925211  0.89257381     0.12000
H279        H  0.74290711  0.06650889  0.90119007     0.08600
H280        H  0.74436916  0.10523807  0.94206251     0.11400
C281        C  0.77847712  0.25230996  0.04428269    -0.03200
C282        C  0.77800533  0.24065938  0.01333006    -0.05800
C283        C  0.79709537  0.25252568  0.99010446    -0.20900
C284        C  0.81800691  0.27647804  0.99635147     0.24800
C285        C  0.81678956  0.29066633  0.02539427    -0.18500
C286        C  0.79750444  0.27897094  0.04880304    -0.08400
C287        C  0.84233824  0.28578261  0.97363497    -0.18700
C288        C  0.85485378  0.26521791  0.95356651    -0.23500
C289        C  0.88073457  0.27178101  0.93160418     0.26900
C290        C  0.89460448  0.24647784  0.91641077    -0.20300
C291        C  0.91860776  0.25096759  0.89516708    -0.09900
C292        C  0.92940997  0.28098132  0.88843428    -0.10500
C293        C  0.91567153  0.30641630  0.90359433    -0.03400
C294        C  0.89152971  0.30192336  0.92491001    -0.18500
H295        H  0.76452885  0.22091628  0.00626680     0.10600
H296        H  0.79608530  0.24200438  0.96736784     0.10600
H297        H  0.83245801  0.30954947  0.03078813     0.10300
H298        H  0.80109829  0.28908253  0.07110364     0.11400
H299        H  0.85172553  0.30904325  0.97546260     0.11500
H300        H  0.84669229  0.24138331  0.95415589     0.13400
H301        H  0.88680489  0.22300263  0.92095866     0.09900
H302        H  0.92861800  0.23084604  0.88390384     0.12000
H303        H  0.92338111  0.32985109  0.89876208     0.08600
H304        H  0.88126177  0.32215765  0.93559485     0.11400
C305        C  0.78916536  0.21917906  0.09278984    -0.03200
C306        C  0.78207429  0.19777658  0.11695309    -0.05800
C307        C  0.80486360  0.17971992  0.13150459    -0.20900
C308        C  0.83582099  0.18172509  0.12237317     0.24800
C309        C  0.84398515  0.20442017  0.10060537    -0.18500
C310        C  0.82130799  0.22222367  0.08573746    -0.08400
C311        C  0.85833698  0.15753513  0.13280506    -0.18700
C312        C  0.88011172  0.14664042  0.11322974    -0.23500
C313        C  0.90089475  0.11950210  0.11855998     0.26900
C314        C  0.91748280  0.10860256  0.09288882    -0.20300
C315        C  0.93724790  0.08321743  0.09539893    -0.09900
C316        C  0.94136758  0.06783814  0.12380639    -0.10500
C317        C  0.92508007  0.07869459  0.14988980    -0.03400
C318        C  0.90484614  0.10433829  0.14729886    -0.18500
H319        H  0.75873046  0.19149690  0.12238636     0.10600
H320        H  0.79781160  0.16221026  0.14810060     0.10600
H321        H  0.86794574  0.20741065  0.09369898     0.10300
H322        H  0.82998316  0.23654608  0.06735977     0.11400
H323        H  0.85448121  0.14624958  0.15492919     0.11500
H324        H  0.88143338  0.15694000  0.09030255     0.13400
H325        H  0.91506785  0.11972170  0.07048547     0.09900
H326        H  0.94953300  0.07577480  0.07482391     0.12000
H327        H  0.92790928  0.06737332  0.17211581     0.08600
H328        H  0.89270654  0.11222507  0.16773425     0.11400
C329        C  0.07440126  0.69752437  0.89978955    -0.03200
C330        C  0.07773356  0.67239311  0.92036801    -0.05800
C331        C  0.10133710  0.67245803  0.94278649    -0.20900
C332        C  0.12247009  0.69719588  0.94442726     0.24800
C333        C  0.11898928  0.72229819  0.92381732    -0.18500
C334        C  0.09522856  0.72246794  0.90186216    -0.08400
C335        C  0.14672061  0.69775177  0.96896195    -0.18700
C336        C  0.17450691  0.71122759  0.96414298    -0.23500
C337        C  0.19672693  0.71985890  0.98904556     0.26900
C338        C  0.21658793  0.74467956  0.98328619    -0.20300
C339        C  0.23447454  0.75749975  0.00683722    -0.09900
C340        C  0.23433485  0.74553244  0.03766594    -0.10500
C341        C  0.21565904  0.71863336  0.04222453    -0.03400
C342        C  0.19714380  0.70621301  0.01851605    -0.18500
H343        H  0.06178011  0.65300912  0.91948983     0.10600
H344        H  0.10320857  0.65313005  0.95876115     0.10600
H345        H  0.13410156  0.74230817  0.92513809     0.10300
H346        H  0.09314663  0.74224784  0.88646965     0.11400
H347        H  0.14075753  0.68845954  0.99153465     0.11500
H348        H  0.17986350  0.71953123  0.94098474     0.13400
H349        H  0.21682394  0.75573442  0.96071815     0.09900
H350        H  0.24655390  0.77826340  0.00013034     0.12000
H351        H  0.21199579  0.70872609  0.06462750     0.08600
H352        H  0.18232493  0.68666805  0.02381088     0.11400
C353        C  0.26829360  0.79212398  0.05038314    -0.03200
C354        C  0.29504516  0.78748562  0.03155958    -0.05800
C355        C  0.30610129  0.81039626  0.01127514    -0.20900
C356        C  0.29077938  0.83887519  0.00835281     0.24800
C357        C  0.26616580  0.84522503  0.02845031    -0.18500
C358        C  0.25489647  0.82245619  0.04848112    -0.08400
C359        C  0.29952195  0.86073606  0.98301120    -0.18700
C360        C  0.27828542  0.87915206  0.96902994    -0.23500
C361        C  0.28433531  0.90023490  0.94228867     0.26900
C362        C  0.25861641  0.91331285  0.92706381    -0.20300
C363        C  0.26253607  0.93403720  0.90249938    -0.09900
C364        C  0.29237148  0.94233406  0.89242894    -0.10500
C365        C  0.31824629  0.92907990  0.90732868    -0.03400
C366        C  0.31431971  0.90831080  0.93209404    -0.18500
H367        H  0.30671491  0.76568017  0.03023975     0.10600
H368        H  0.32552710  0.80497927  0.99630046     0.10600
H369        H  0.25442907  0.86747476  0.02780743     0.10300
H370        H  0.23379461  0.82887798  0.06017044     0.11400
H371        H  0.32304656  0.85955431  0.97421010     0.11500
H372        H  0.25433149  0.87777603  0.97668264     0.13400
H373        H  0.23524500  0.90761524  0.93432919     0.09900
H374        H  0.24209101  0.94375619  0.89153340     0.12000
H375        H  0.34154404  0.93517839  0.90019982     0.08600
H376        H  0.33480852  0.89923949  0.94338958     0.11400
C377        C  0.22268959  0.77894976  0.08531168    -0.03200
C378        C  0.22905171  0.79959358  0.11031187    -0.05800
C379        C  0.20588504  0.81787247  0.12401065    -0.20900
C380        C  0.17542094  0.81707809  0.11300991     0.24800
C381        C  0.16794678  0.79532675  0.09012605    -0.18500
C382        C  0.19090231  0.77703039  0.07638046    -0.08400
C383        C  0.15258704  0.84093404  0.12359339    -0.18700
C384        C  0.13119774  0.85274667  0.10399021    -0.23500
C385        C  0.10915280  0.87865348  0.11064779     0.26900
C386        C  0.09205412  0.89039741  0.08559770    -0.20300
C387        C  0.07086013  0.91447824  0.08961001    -0.09900
C388        C  0.06584566  0.92768365  0.11893368    -0.10500
C389        C  0.08277122  0.91603719  0.14430503    -0.03400
C390        C  0.10431849  0.89171142  0.14022866    -0.18500
H391        H  0.25230982  0.80509832  0.11717370     0.10600
H392        H  0.21238943  0.83458040  0.14158522     0.10600
H393        H  0.14436437  0.79323007  0.08173265     0.10300
H394        H  0.18291481  0.76327992  0.05724362     0.11400
H395        H  0.15549253  0.85078085  0.14650323     0.11500
H396        H  0.13076095  0.84393144  0.08044547     0.13400
H397        H  0.09511323  0.88091654  0.06256543     0.09900
H398        H  0.05825756  0.92268221  0.06948476     0.12000
H399        H  0.07939534  0.92572124  0.16718482     0.08600
H400        H  0.11678578  0.88318557  0.16023858     0.11400
C401        C  0.07111731  0.06242287  0.54377672    -0.03200
C402        C  0.08946841  0.06468215  0.57054570    -0.05800
C403        C  0.11251804  0.08716724  0.57287775    -0.20900
C404        C  0.11795302  0.10811397  0.54859422     0.24800
C405        C  0.10031740  0.10539923  0.52125046    -0.18500
C406        C  0.07713414  0.08258135  0.51884045    -0.08400
C407        C  0.14007507  0.13385426  0.55456835    -0.18700
C408        C  0.15212889  0.15338941  0.53331045    -0.23500
C409        C  0.17181593  0.17983073  0.54353147     0.26900
C410        C  0.16418453  0.19608041  0.57039249    -0.20300
C411        C  0.18458954  0.21746952  0.58310080    -0.09900
C412        C  0.21340694  0.22541524  0.56883628    -0.10500
C413        C  0.21983240  0.20950466  0.54059718    -0.03400
C414        C  0.19918928  0.18760262  0.52799481    -0.18500
H415        H  0.08566342  0.04935509  0.59007912     0.10600
H416        H  0.12568494  0.08868006  0.59420904     0.10600
H417        H  0.10351407  0.12143541  0.50223206     0.10300
H418        H  0.06325695  0.08139677  0.49796306     0.11400
H419        H  0.14686746  0.13703269  0.57861240     0.11500
H420        H  0.14852022  0.14956357  0.50875181     0.13400
H421        H  0.14287220  0.19107600  0.58271366     0.09900
H422        H  0.17787396  0.22581993  0.60565357     0.12000
H423        H  0.24104192  0.21266639  0.52823015     0.08600
H424        H  0.20555867  0.17539082  0.50702418     0.11400
C425        C  0.25832251  0.21680915  0.60607203    -0.03200
C426        C  0.25180685  0.18460282  0.60185809    -0.05800
C427        C  0.26611016  0.16150873  0.61928497    -0.20900
C428        C  0.28720012  0.16878154  0.64261397     0.24800
C429        C  0.29568612  0.20000263  0.64644771    -0.18500
C430        C  0.28184313  0.22342396  0.62829457    -0.08400
C431        C  0.29628950  0.14307166  0.66392958    -0.18700
C432        C  0.31184966  0.14600062  0.69082256    -0.23500
C433        C  0.31148425  0.12027178  0.71386305     0.26900
C434        C  0.33809190  0.11253996  0.73104540    -0.20300
C435        C  0.33715140  0.08841948  0.75301711    -0.09900
C436        C  0.30932559  0.07229227  0.75867690    -0.10500
C437        C  0.28270761  0.08051904  0.74175405    -0.03400
C438        C  0.28378122  0.10408320  0.71962578    -0.26500
H439        H  0.23480828  0.17592603  0.58588711     0.10600
H440        H  0.25915854  0.13762336  0.61548339     0.10600
H441        H  0.31191033  0.20676480  0.66429647     0.10300
H442        H  0.28751543  0.24682713  0.63462702     0.11400
H443        H  0.28684057  0.12028800  0.65855729     0.11500
H444        H  0.32336475  0.16749952  0.69693678     0.13400
H445        H  0.35959514  0.12495675  0.72726448     0.09900
H446        H  0.35795563  0.08278108  0.76594671     0.12000
H447        H  0.26086465  0.06874345  0.74565859     0.08600
H448        H  0.26263974  0.11008581  0.70740839     0.11400
C449        C  0.21990524  0.26266365  0.61317732    -0.03200
C450        C  0.19662310  0.28380867  0.60294719    -0.05800
C451        C  0.17424354  0.29600525  0.62291282    -0.20900
C452        C  0.17407865  0.28819620  0.65424499     0.24800
C453        C  0.19785322  0.26913237  0.66565092    -0.18500
C454        C  0.22004256  0.25631341  0.64559927    -0.08400
C455        C  0.14609662  0.29559575  0.67297445    -0.18700
C456        C  0.14660052  0.30060890  0.70370903    -0.23500
C457        C  0.11758572  0.30274364  0.72220923     0.26900
C458        C  0.11547837  0.32368139  0.74703215    -0.20300
C459        C  0.08926295  0.32385674  0.76630601    -0.09900
C460        C  0.06525835  0.30229613  0.76171019    -0.10500
C461        C  0.06722116  0.28164175  0.73663542    -0.03400
C462        C  0.09292248  0.28208660  0.71688133    -0.18500
H463        H  0.19250136  0.28801635  0.57884584     0.10600
H464        H  0.15567846  0.31006817  0.61333414     0.10600
H465        H  0.19783622  0.26191527  0.68967882     0.10300
H466        H  0.23519979  0.23952248  0.65608193     0.11400
H467        H  0.12393998  0.29625771  0.66093230     0.11500
H468        H  0.16867431  0.30285903  0.71565206     0.13400
H469        H  0.13430660  0.33963495  0.75171445     0.09900
H470        H  0.08842565  0.33981556  0.78565478     0.12000
H471        H  0.04907121  0.26473603  0.73263902     0.08600
H472        H  0.09414650  0.26527947  0.69828504     0.11400
C473        C  0.94248718  0.70956280  0.90456762    -0.03200
C474        C  0.93835957  0.73904644  0.91780674    -0.05800
C475        C  0.91640847  0.74383188  0.94091873    -0.20900
C476        C  0.89772581  0.71940747  0.95154623     0.24800
C477        C  0.90186947  0.68962943  0.93859319    -0.18500
C478        C  0.92412713  0.68478456  0.91526530    -0.08400
C479        C  0.87463677  0.72693527  0.97605726    -0.18700
C480        C  0.85255651  0.70782390  0.98732759    -0.23500
C481        C  0.82931830  0.71924342  0.01024415     0.26900
C482        C  0.79887623  0.70811855  0.00961639    -0.20300
C483        C  0.77562572  0.72223928  0.02749506    -0.09900
C484        C  0.78181101  0.74834154  0.04678102    -0.10500
C485        C  0.81359216  0.75731362  0.04860147    -0.03400
C486        C  0.83664266  0.74279907  0.03126329    -0.18500
H487        H  0.95212844  0.75867055  0.91027748     0.10600
H488        H  0.91393252  0.76698366  0.95043647     0.10600
H489        H  0.88819508  0.67007965  0.94629148     0.10300
H490        H  0.92683494  0.66178605  0.90549860     0.11400
H491        H  0.87506230  0.75074317  0.98429656     0.11500
H492        H  0.84971843  0.68464006  0.97799621     0.13400
H493        H  0.79256141  0.68974410  0.99371065     0.09900
H494        H  0.75244136  0.71442205  0.02310273     0.12000
H495        H  0.82171624  0.77657523  0.06213079     0.08600
H496        H  0.86024855  0.75101160  0.03367882     0.11400
C497        C  0.68315744  0.94034745  0.89937749    -0.03200
C498        C  0.70077763  0.94561936  0.92617337    -0.05800
C499        C  0.70108767  0.92389392  0.95018673    -0.20900
C500        C  0.68471320  0.89592764  0.94742490     0.24800
C501        C  0.66639238  0.89087176  0.92090000    -0.18500
C502        C  0.66530581  0.91319235  0.89717099    -0.08400
C503        C  0.68833798  0.87228686  0.97220353    -0.18700
C504        C  0.69220637  0.84186171  0.96607907    -0.23500
C505        C  0.70386853  0.81980434  0.98992547     0.26900
C506        C  0.72642674  0.79807557  0.98165233    -0.20300
C507        C  0.74170100  0.78039556  0.00417980    -0.09900
C508        C  0.73414315  0.78262482  0.03626015    -0.10500
C509        C  0.70981114  0.80378781  0.04360733    -0.03400
C510        C  0.69505132  0.82187893  0.02101406    -0.18500
H511        H  0.71464405  0.96647496  0.92834159     0.10600
H512        H  0.71523149  0.92835703  0.97044469     0.10600
H513        H  0.65318358  0.86964942  0.91844055     0.10300
H514        H  0.65166106  0.90867557  0.87659950     0.11400
H515        H  0.69268463  0.88068478  0.99552119     0.11500
H516        H  0.69143177  0.83399999  0.94219005     0.13400
H517        H  0.73394004  0.79632958  0.95777302     0.09900
H518        H  0.76095756  0.76707079  0.99561076     0.12000
H519        H  0.70387480  0.80923123  0.06701506     0.08600
H520        H  0.67758237  0.83850619  0.02815169     0.11400
C521        C  0.77115877  0.79626239  0.07951664    -0.03200
C522        C  0.77392158  0.82550719  0.06416651    -0.05800
C523        C  0.79258104  0.84928677  0.07531125    -0.20900
C524        C  0.81091713  0.84512428  0.10154370     0.24800
C525        C  0.80862500  0.81697097  0.11779006    -0.18500
C526        C  0.78931363  0.79301111  0.10695943    -0.08400
C527        C  0.83349382  0.87015011  0.10899888    -0.18700
C528        C  0.85997591  0.86612481  0.12509677    -0.23500
C529        C  0.88470348  0.89022733  0.12531463     0.26900
C530        C  0.90359512  0.89396582  0.15151559    -0.20300
C531        C  0.92761849  0.91590419  0.15155055    -0.09900
C532        C  0.93367594  0.93397023  0.12505488    -0.10500
C533        C  0.91505272  0.92984410  0.09870738    -0.03400
C534        C  0.89083910  0.90830499  0.09883041    -0.18500
H535        H  0.76352399  0.83034259  0.04197742     0.10600
H536        H  0.79415226  0.87057501  0.06196918     0.10600
H537        H  0.82237035  0.81289241  0.13836198     0.10300
H538        H  0.79072095  0.77157044  0.11942318     0.11400
H539        H  0.82954374  0.89251544  0.09796299     0.11500
H540        H  0.86446152  0.84450104  0.13722278     0.13400
H541        H  0.89962634  0.88002451  0.17202353     0.09900
H542        H  0.94170590  0.91844150  0.17216256     0.12000
H543        H  0.91919165  0.94329723  0.07791423     0.08600
H544        H  0.87744985  0.90530046  0.07783574     0.11400
C545        C  0.06987834  0.69660298  0.76835671    -0.03200
C546        C  0.08481064  0.66887060  0.75959408    -0.05800
C547        C  0.10754271  0.66905859  0.73622797    -0.20900
C548        C  0.11518747  0.69680732  0.72086435     0.24800
C549        C  0.10056450  0.72449178  0.73010813    -0.18500
C550        C  0.07824592  0.72436647  0.75342663    -0.08400
C551        C  0.13918235  0.69729393  0.69604398    -0.18700
C552        C  0.13635813  0.71664995  0.67161878    -0.23500
C553        C  0.16126227  0.72447048  0.64902689     0.26900
C554        C  0.15755124  0.75167985  0.63188980    -0.20300
C555        C  0.18110637  0.76274785  0.61287176    -0.09900
C556        C  0.20953757  0.74634057  0.60831447    -0.10500
C557        C  0.21260676  0.71848582  0.62599708    -0.03400
C558        C  0.18891575  0.70762756  0.64558384    -0.18500
H559        H  0.07910199  0.64717008  0.77091716     0.10600
H560        H  0.11886342  0.64751173  0.72986704     0.10600
H561        H  0.10671740  0.74650459  0.71965490     0.10300
H562        H  0.06754185  0.74622749  0.75978611     0.11400
H563        H  0.15950202  0.68265013  0.69875852     0.11500
H564        H  0.11489629  0.72978803  0.66940002     0.13400
H565        H  0.13681666  0.76571981  0.63459798     0.09900
H566        H  0.17695517  0.78566942  0.60367756     0.12000
H567        H  0.23345343  0.70511169  0.62632016     0.08600
H568        H  0.19283610  0.68647613  0.65854378     0.11400
C569        C  0.25845043  0.77804868  0.61775963    -0.03200
C570        C  0.28586276  0.79540938  0.61143481    -0.05800
C571        C  0.29956858  0.81478772  0.63367761    -0.20900
C572        C  0.28671632  0.81766743  0.66322645     0.24800
C573        C  0.26232306  0.79790726  0.67131516    -0.18500
C574        C  0.24850988  0.77868356  0.64929203    -0.08400
C575        C  0.29714609  0.84306808  0.68428523    -0.18700
C576        C  0.27673576  0.85816251  0.70265065    -0.23500
C577        C  0.28361115  0.88590936  0.72211026     0.26900
C578        C  0.25831597  0.90327820  0.73309402    -0.20300
C579        C  0.26276147  0.92884854  0.75239650    -0.09900
C580        C  0.29272145  0.93777263  0.76156321    -0.10500
C581        C  0.31826479  0.92069968  0.75036512    -0.03400
C582        C  0.31379037  0.89498358  0.73079809    -0.18500
H583        H  0.29504599  0.79781858  0.58859432     0.10600
H584        H  0.31879161  0.82948101  0.62689767     0.10600
H585        H  0.25282609  0.79822689  0.69452165     0.10300
H586        H  0.22867240  0.76610084  0.65767364     0.11400
H587        H  0.32078456  0.85141325  0.68214538     0.11500
H588        H  0.25259959  0.85094628  0.70203317     0.13400
H589        H  0.23481124  0.89691361  0.72686246     0.09900
H590        H  0.24253269  0.94135262  0.76056069     0.12000
H591        H  0.34164298  0.92687077  0.75716557     0.08600
H592        H  0.33387835  0.88196667  0.72322496     0.11400
C593        C  0.22318246  0.78990495  0.57117219    -0.03200
C594        C  0.22828055  0.82201538  0.57753475    -0.05800
C595        C  0.21021297  0.84544394  0.56405896    -0.20900
C596        C  0.18545495  0.83812137  0.54461469     0.24800
C597        C  0.18098541  0.80707751  0.53626842    -0.18500
C598        C  0.19959117  0.78356857  0.54894422    -0.08400
C599        C  0.16270016  0.86276265  0.53625980    -0.18700
C600        C  0.13201190  0.85826423  0.54013655    -0.23500
C601        C  0.10871243  0.88377314  0.53913236     0.26900
C602        C  0.08397635  0.88301283  0.56023675    -0.20300
C603        C  0.06184176  0.90679355  0.56075305    -0.09900
C604        C  0.06329945  0.93134536  0.53941114    -0.10500
C605        C  0.08754860  0.93179347  0.51762512    -0.03400
C606        C  0.11035722  0.90840569  0.51774374    -0.18500
H607        H  0.24446392  0.83014219  0.59455384     0.10600
H608        H  0.21408254  0.86933939  0.57089341     0.10600
H609        H  0.16193138  0.80075490  0.52118206     0.10300
H610        H  0.19220579  0.76032112  0.54409123     0.11400
H611        H  0.17130648  0.88602442  0.53170984     0.11500
H612        H  0.12407800  0.83571795  0.54824355     0.13400
H613        H  0.08214397  0.86423900  0.57686174     0.09900
H614        H  0.04335088  0.90586309  0.57771034     0.12000
H615        H  0.08923375  0.95059041  0.50102613     0.08600
H616        H  0.12896940  0.90936718  0.50094490     0.11400
C617        C  0.74176450  0.21980660  0.61098781    -0.03200
C618        C  0.71742579  0.22676936  0.63224846    -0.05800
C619        C  0.70487320  0.20426525  0.65206234    -0.20900
C620        C  0.71612962  0.17381582  0.65196054     0.24800
C621        C  0.73862582  0.16576736  0.63003266    -0.18500
C622        C  0.75133212  0.18808265  0.61035513    -0.08400
C623        C  0.70531690  0.15132268  0.67590228    -0.18700
C624        C  0.72403896  0.12869459  0.68690519    -0.23500
C625        C  0.71618968  0.10684000  0.71246563     0.26900
C626        C  0.74068945  0.09058135  0.72651372    -0.20300
C627        C  0.73512580  0.06943908  0.75032827    -0.09900
C628        C  0.70478051  0.06371814  0.76072177    -0.10500
C629        C  0.68004126  0.07975897  0.74662315    -0.03400
C630        C  0.68565666  0.10115118  0.72267750    -0.18500
H631        H  0.70981081  0.25011248  0.63636406     0.10600
H632        H  0.68750255  0.21119765  0.66882601     0.10600
H633        H  0.74708194  0.14214350  0.62831044     0.10300
H634        H  0.76959023  0.17953749  0.59570214     0.11400
H635        H  0.68276149  0.15523213  0.68634489     0.11500
H636        H  0.74754325  0.12712612  0.67799744     0.13400
H637        H  0.76441067  0.09431777  0.71909506     0.09900
H638        H  0.75475258  0.05747069  0.76055282     0.12000
H639        H  0.65638543  0.07570961  0.75402474     0.08600
H640        H  0.66605974  0.11270709  0.71204236     0.11400
C641        C  0.77552300  0.26862384  0.61480703    -0.03200
C642        C  0.79587943  0.29215692  0.60381697    -0.05800
C643        C  0.81803749  0.30604872  0.62308108    -0.20900
C644        C  0.82010844  0.29801074  0.65436502     0.24800
C645        C  0.79819617  0.27751990  0.66657444    -0.18500
C646        C  0.77676622  0.26282927  0.64732670    -0.08400
C647        C  0.84839522  0.30599560  0.67230558    -0.18700
C648        C  0.84836818  0.30948382  0.70324373    -0.23500
C649        C  0.87740518  0.30895544  0.72160025     0.26900
C650        C  0.88186990  0.33045874  0.74552249    -0.20300
C651        C  0.90790322  0.32827031  0.76484716    -0.09900
C652        C  0.92926534  0.30379603  0.76130993    -0.10500
C653        C  0.92470401  0.28220899  0.73738325    -0.03400
C654        C  0.89921889  0.28500052  0.71744698    -0.18500
H655        H  0.79802097  0.29724854  0.57966481     0.10600
H656        H  0.83501383  0.32157347  0.61297775     0.10600
H657        H  0.79957432  0.27022810  0.69054679     0.10300
H658        H  0.76386195  0.24477608  0.65858996     0.11400
H659        H  0.87034683  0.30668775  0.65993203     0.11500
H660        H  0.82653033  0.31140685  0.71565244     0.13400
H661        H  0.86506605  0.34879426  0.74938302     0.09900
H662        H  0.91068757  0.34500926  0.78333814     0.12000
H663        H  0.94070873  0.26303606  0.73426933     0.08600
H664        H  0.89583913  0.26770514  0.69957209     0.11400
C665        C  0.93904222  0.07183102  0.55052220    -0.03200
C666        C  0.93223593  0.08431199  0.57976629    -0.05800
C667        C  0.91128062  0.10889577  0.58289430    -0.20900
C668        C  0.89626559  0.12179740  0.55698329     0.24800
C669        C  0.90312376  0.10952670  0.52751791    -0.18500
C670        C  0.92429817  0.08477021  0.52436736    -0.08400
C671        C  0.87428364  0.14815371  0.56249614    -0.18700
C672        C  0.85439958  0.16077061  0.54165538    -0.23500
C673        C  0.83215918  0.18609255  0.55044779     0.26900
C674        C  0.80324278  0.18872142  0.53578001    -0.20300
C675        C  0.78048649  0.20950601  0.54676206    -0.09900
C676        C  0.78582154  0.22912769  0.57278145    -0.10500
C677        C  0.81619698  0.22681743  0.58591310    -0.03400
C678        C  0.83877926  0.20665119  0.57456370    -0.18500
H679        H  0.94316485  0.07509104  0.60042007     0.10600
H680        H  0.90671306  0.11783279  0.60588996     0.10600
H681        H  0.89251177  0.11900768  0.50687664     0.10300
H682        H  0.92916514  0.07579738  0.50146559     0.11400
H683        H  0.87355671  0.15667531  0.58611412     0.11500
H684        H  0.85269634  0.15111217  0.51854677     0.13400
H685        H  0.79746419  0.17327859  0.51686116     0.09900
H686        H  0.75830120  0.20788664  0.53579343     0.12000
H687        H  0.82293231  0.23880478  0.60672765     0.08600
H688        H  0.86120430  0.20646515  0.58585089     0.11400
C689        C  0.93684761  0.70679598  0.77354117    -0.03200
C690        C  0.92864715  0.68181344  0.75425060    -0.05800
C691        C  0.90584264  0.68559087  0.73128178    -0.20900
C692        C  0.89071696  0.71438806  0.72753367     0.24800
C693        C  0.89829612  0.73883940  0.74758512    -0.18500
C694        C  0.92104454  0.73514044  0.77024110    -0.08400
C695        C  0.86890453  0.72123541  0.70174721    -0.18700
C696        C  0.85411919  0.70003676  0.68417638    -0.23500
C697        C  0.83337786  0.71035657  0.65862750     0.26900
C698        C  0.80433816  0.69668803  0.65435949    -0.20300
C699        C  0.78258541  0.71002868  0.63410361    -0.09900
C700        C  0.78934010  0.73726846  0.61649747    -0.10500
C701        C  0.82005907  0.74906351  0.61997678    -0.03400
C702        C  0.84147018  0.73571133  0.64015224    -0.18500
H703        H  0.94053531  0.65971703  0.75626703     0.10600
H704        H  0.90097992  0.66635686  0.71595755     0.10600
H705        H  0.88700305  0.76123868  0.74529564     0.10300
H706        H  0.92655939  0.75472197  0.78496255     0.11400
H707        H  0.86432424  0.74567844  0.69724809     0.11500
H708        H  0.85554152  0.67547586  0.68965380     0.13400
H709        H  0.79752191  0.67706461  0.66851631     0.09900
H710        H  0.75985935  0.70021491  0.63517611     0.12000
H711        H  0.82783516  0.77029512  0.60933140     0.08600
H712        H  0.86409794  0.74639661  0.64245697     0.11400
C713        C  0.74375972  0.77323217  0.62693381    -0.03200
C714        C  0.75281145  0.77087663  0.65861193    -0.05800
C715        C  0.73989237  0.78940840  0.68159477    -0.20900
C716        C  0.71775141  0.81198070  0.67458545     0.24800
C717        C  0.70647839  0.81356467  0.64410058    -0.18500
C718        C  0.71898555  0.79440631  0.62084637    -0.08400
C719        C  0.71023196  0.83485356  0.69941069    -0.18700
C720        C  0.69349077  0.86107395  0.69587542    -0.23500
C721        C  0.69290677  0.88527980  0.72047039     0.26900
C722        C  0.66576251  0.90242320  0.72604700    -0.20300
C723        C  0.66528484  0.92567012  0.74878462    -0.09900
C724        C  0.69218387  0.93265351  0.76592997    -0.10500
C725        C  0.71945507  0.91577762  0.75993209    -0.03400
C726        C  0.71981890  0.89238114  0.73752559    -0.18500
H727        H  0.77157319  0.75650324  0.66664936     0.10600
H728        H  0.74898306  0.78736712  0.70492537     0.10600
H729        H  0.68916562  0.83054909  0.63757287     0.10300
H730        H  0.71125159  0.79913690  0.59769849     0.11400
H731        H  0.72120872  0.83095017  0.72175996     0.11500
H732        H  0.68058908  0.86545619  0.67476392     0.13400
H733        H  0.64485653  0.89763786  0.71297052     0.09900
H734        H  0.64394454  0.93838598  0.75272002     0.12000
H735        H  0.74063743  0.92073289  0.77248294     0.08600
H736        H  0.74142125  0.88029000  0.73311101     0.11400
C737        C  0.93039325  0.93917215  0.54877711    -0.03200
C738        C  0.91910107  0.93177096  0.57838000    -0.05800
C739        C  0.89478729  0.91092668  0.58215055    -0.20900
C740        C  0.88099713  0.89648504  0.55656374     0.24800
C741        C  0.89211482  0.90364442  0.52668897    -0.18500
C742        C  0.91665029  0.92491184  0.52285046    -0.08400
C743        C  0.85479921  0.87493516  0.56299128    -0.18700
C744        C  0.84354131  0.85316145  0.54357963    -0.23500
C745        C  0.81965950  0.83044683  0.55424820     0.26900
C746        C  0.82036421  0.79982742  0.54356179    -0.20300
C747        C  0.80142493  0.77701831  0.55699218    -0.09900
C748        C  0.78033044  0.78388993  0.58145077    -0.10500
C749        C  0.77944040  0.81560844  0.59082099    -0.03400
C750        C  0.79792847  0.83826110  0.57702559    -0.18500
H751        H  0.92897579  0.94224355  0.59892593     0.10600
H752        H  0.88676038  0.90599627  0.60541668     0.10600
H753        H  0.88173542  0.89332107  0.50636085     0.10300
H754        H  0.92479075  0.93022192  0.49973407     0.11400
H755        H  0.84576542  0.87567946  0.58643841     0.11500
H756        H  0.85400963  0.84986693  0.52097732     0.13400
H757        H  0.83707437  0.79302130  0.52609635     0.09900
H758        H  0.80569841  0.75371129  0.54958484     0.12000
H759        H  0.76627122  0.82381382  0.61026528     0.08600
H760        H  0.79596410  0.86188370  0.58536037     0.11400
C761        C  0.71131113  0.27175276  0.07597281    -0.03200
C762        C  0.68109058  0.27286944  0.08939021    -0.05800
C763        C  0.65702240  0.29010010  0.07657126    -0.20900
C764        C  0.66177002  0.30860983  0.05058446     0.24800
C765        C  0.69075164  0.30734903  0.03578603    -0.18500
C766        C  0.71495329  0.28902627  0.04802247    -0.08400
C767        C  0.63623884  0.33025469  0.04189921    -0.18700
C768        C  0.64023068  0.35780820  0.02770774    -0.23500
C769        C  0.61496863  0.38145255  0.02675398     0.26900
C770        C  0.61195267  0.40116251  0.00104370    -0.20300
C771        C  0.58874017  0.42402882  0.00026998    -0.09900
C772        C  0.56858083  0.42814617  0.02558010    -0.10500
C773        C  0.57201650  0.40878812  0.05154917    -0.03400
C774        C  0.59485709  0.38566490  0.05211217    -0.18500
H775        H  0.67541762  0.26252875  0.11135123     0.10600
H776        H  0.63494461  0.29067407  0.08859694     0.10600
H777        H  0.69516272  0.32116628  0.01532669     0.10300
H778        H  0.73702528  0.29105205  0.03676284     0.11400
H779        H  0.61331306  0.32478757  0.05084760     0.11500
H780        H  0.66255687  0.36388775  0.01782890     0.13400
H781        H  0.62742776  0.39868912  0.98144300     0.09900
H782        H  0.58683490  0.43876522  0.98001642     0.12000
H783        H  0.55701585  0.41149501  0.07147919     0.08600
H784        H  0.59720368  0.37157181  0.07276071     0.11400
C785        C  0.57028914  0.55934447  0.03511450    -0.03200
C786        C  0.58152017  0.56514626  0.06510627    -0.05800
C787        C  0.60526418  0.58655285  0.07002028    -0.20900
C788        C  0.61841500  0.60294957  0.04519593     0.24800
C789        C  0.60722622  0.59723808  0.01505283    -0.18500
C790        C  0.58336214  0.57563588  0.01010943    -0.08400
C791        C  0.64396738  0.62512049  0.05226460    -0.18700
C792        C  0.65517239  0.64676476  0.03262432    -0.23500
C793        C  0.67879562  0.66988410  0.04264099     0.26900
C794        C  0.67767576  0.70007273  0.03084956    -0.20300
C795        C  0.69627272  0.72352433  0.04342503    -0.09900
C796        C  0.71755454  0.71771381  0.06805330    -0.10500
C797        C  0.71963125  0.68613694  0.07788679    -0.03400
C798        C  0.70097330  0.66289854  0.06527871    -0.18500
H799        H  0.57207845  0.55297663  0.08492494     0.10600
H800        H  0.61338666  0.59031909  0.09346381     0.10600
H801        H  0.61699958  0.60891461  0.99517146     0.10300
H802        H  0.57526410  0.57157050  0.98672406     0.11400
H803        H  0.65284098  0.62461214  0.07579983     0.11500
H804        H  0.64494593  0.64967306  0.00986258     0.13400
H805        H  0.66063980  0.70614967  0.01338783     0.09900
H806        H  0.69079710  0.74657712  0.03583084     0.12000
H807        H  0.73385529  0.67857348  0.09690452     0.08600
H808        H  0.70325845  0.63951546  0.07425566     0.11400
C809        C  0.43807737  0.56300184  0.02251134    -0.03200
C810        C  0.42361461  0.57222326  0.99471374    -0.05800
C811        C  0.40137035  0.59610656  0.99459370    -0.20900
C812        C  0.39376170  0.61167708  0.02209024     0.24800
C813        C  0.40790655  0.60209024  0.04990080    -0.18500
C814        C  0.42971821  0.57805062  0.05010331    -0.08400
C815        C  0.37030581  0.63713347  0.02207244    -0.18700
C816        C  0.37393486  0.66209296  0.04046181    -0.23500
C817        C  0.34925008  0.68495437  0.04839471     0.26900
C818        C  0.35229468  0.70029858  0.07656896    -0.20300
C819        C  0.32871421  0.71909839  0.08789712    -0.09900
C820        C  0.30098856  0.72536067  0.07089342    -0.10500
C821        C  0.29869665  0.70994878  0.04174110    -0.03400
C822        C  0.32244528  0.69033716  0.03065764    -0.18500
H823        H  0.42939185  0.56089093  0.97309723     0.10600
H824        H  0.39047073  0.60276675  0.97297148     0.10600
H825        H  0.40178999  0.61291028  0.07168513     0.10300
H826        H  0.44019559  0.57137970  0.07192709     0.11400
H827        H  0.34958890  0.63443507  0.00805547     0.11500
H828        H  0.39557163  0.66409569  0.05327847     0.13400
H829        H  0.37239126  0.69615400  0.09113267     0.09900
H830        H  0.33220327  0.72687009  0.11137292     0.12000
H831        H  0.27823360  0.71130763  0.02773791     0.08600
H832        H  0.31928266  0.67881695  0.00863990     0.11400
C833        C  0.28620015  0.28155004  0.06851880    -0.03200
C834        C  0.27405174  0.30648588  0.05061750    -0.05800
C835        C  0.29302306  0.32889117  0.03691907    -0.20900
C836        C  0.32521510  0.32724011  0.03969872     0.24800
C837        C  0.33819574  0.30217420  0.05579371    -0.18500
C838        C  0.31922674  0.28021630  0.07040528    -0.08400
C839        C  0.34418921  0.35446571  0.03050165    -0.18700
C840        C  0.37378277  0.35241696  0.02076812    -0.23500
C841        C  0.39382507  0.38029884  0.01794992     0.26900
C842        C  0.41595706  0.38244023  0.99416593    -0.20300
C843        C  0.43684445  0.40742794  0.99320442    -0.09900
C844        C  0.43651694  0.43002892  0.01665057    -0.10500
C845        C  0.41406628  0.42801785  0.04013392    -0.03400
C846        C  0.39282457  0.40360448  0.04066002    -0.18500
H847        H  0.24975780  0.31127164  0.04980363     0.10600
H848        H  0.28232753  0.34855405  0.02538043     0.10600
H849        H  0.36305020  0.30086308  0.05933155     0.10300
H850        H  0.33152707  0.26403021  0.08471661     0.11400
H851        H  0.33360703  0.37728256  0.03287093     0.11500
H852        H  0.38380680  0.32984249  0.01559253     0.13400
H853        H  0.41731040  0.36456925  0.97658739     0.09900
H854        H  0.45409091  0.40832278  0.97499845     0.12000
H855        H  0.41331791  0.44508182  0.05853408     0.08600
H856        H  0.37650086  0.40223486  0.05966614     0.11400
C857        C  0.43804219  0.19412115  0.39829882    -0.03200
C858        C  0.43044996  0.16783515  0.41616377    -0.05800
C859        C  0.40837059  0.16991075  0.44004820    -0.20900
C860        C  0.39299000  0.19807990  0.44603559     0.24800
C861        C  0.40106201  0.22439548  0.42841689    -0.18500
C862        C  0.42321837  0.22241705  0.40492232    -0.08400
C863        C  0.36937007  0.20029722  0.47126451    -0.18700
C864        C  0.34491673  0.21970137  0.46870509    -0.23500
C865        C  0.32334855  0.22874085  0.49409864     0.26900
C866        C  0.30899567  0.25759899  0.49136381    -0.20300
C867        C  0.28961691  0.26887224  0.51442076    -0.09900
C868        C  0.28158726  0.25116012  0.54114617    -0.10500
C869        C  0.29703681  0.22193587  0.54381870    -0.03400
C870        C  0.31732635  0.21086514  0.52064251    -0.18500
H871        H  0.44177421  0.14578286  0.41186988     0.10600
H872        H  0.40299212  0.14942481  0.45358311     0.10600
H873        H  0.39067463  0.24681464  0.43308917     0.10300
H874        H  0.42871824  0.24318355  0.39186739     0.11400
H875        H  0.37279029  0.18672068  0.49217876     0.11500
H876        H  0.34181968  0.23200979  0.44693264     0.13400
H877        H  0.31381381  0.27239257  0.47161305     0.09900
H878        H  0.28200140  0.29248793  0.51096174     0.12000
H879        H  0.29490732  0.20767631  0.56397901     0.08600
H880        H  0.32839147  0.18849521  0.52374575     0.11400
C881        C  0.71569494  0.24343802  0.54486957    -0.03200
C882        C  0.69858227  0.21690111  0.55461467    -0.05800
C883        C  0.67832087  0.20112719  0.53473860    -0.20900
C884        C  0.67477157  0.21030521  0.50392462     0.24800
C885        C  0.69282050  0.23487028  0.49294009    -0.18500
C886        C  0.71245750  0.25123626  0.51284651    -0.08400
C887        C  0.64867799  0.19771356  0.48524907    -0.18700
C888        C  0.64972751  0.19469371  0.45423129    -0.23500
C889        C  0.62146010  0.18889278  0.43538217     0.26900
C890        C  0.62306828  0.17017337  0.40879228    -0.20300
C891        C  0.59741874  0.16757060  0.38889212    -0.09900
C892        C  0.57023469  0.18462681  0.39472235    -0.10500
C893        C  0.56851038  0.20299021  0.42148765    -0.03400
C894        C  0.59368332  0.20478283  0.44184447    -0.18500
H895        H  0.69716974  0.21004439  0.57834690     0.10600
H896        H  0.66406292  0.18262024  0.54401379     0.10600
H897        H  0.69000834  0.24315269  0.46941300     0.10300
H898        H  0.72304544  0.27134418  0.50254455     0.11400
H899        H  0.62732858  0.19204551  0.49737805     0.11500
H900        H  0.67164331  0.19762922  0.44216781     0.13400
H901        H  0.64437109  0.15805302  0.40314165     0.09900
H902        H  0.59939919  0.15365256  0.36810994     0.12000
H903        H  0.54786094  0.21656180  0.42625563     0.08600
H904        H  0.59198839  0.21995184  0.46175838     0.11400
C905        C  0.56952865  0.18946967  0.26516741    -0.03200
C906        C  0.57507357  0.16290763  0.24701859    -0.05800
C907        C  0.59874963  0.16278645  0.22472364    -0.20900
C908        C  0.61778324  0.18889628  0.22066229     0.24800
C909        C  0.61229769  0.21537281  0.23896263    -0.18500
C910        C  0.58845576  0.21565065  0.26086935    -0.08400
C911        C  0.64159496  0.18925225  0.19569744    -0.18700
C912        C  0.66823104  0.20531590  0.19868734    -0.23500
C913        C  0.68957263  0.21356347  0.17280342     0.26900
C914        C  0.71011770  0.23800403  0.17784839    -0.20300
C915        C  0.72702948  0.25091560  0.15363850    -0.09900
C916        C  0.72559288  0.23910202  0.12285333    -0.10500
C917        C  0.70564108  0.21308143  0.11862839    -0.03400
C918        C  0.68812996  0.20053239  0.14305274    -0.18500
H919        H  0.56085557  0.14237755  0.24976541     0.10600
H920        H  0.60224744  0.14227204  0.21064705     0.10600
H921        H  0.62581587  0.23629885  0.23577489     0.10300
H922        H  0.58479801  0.23648950  0.27441707     0.11400
H923        H  0.63610830  0.17738333  0.17427168     0.11500
H924        H  0.67324060  0.21572057  0.22105208     0.13400
H925        H  0.71150244  0.24888867  0.20043010     0.09900
H926        H  0.73894925  0.27191005  0.15980205     0.12000
H927        H  0.70140987  0.20353795  0.09611521     0.08600
H928        H  0.67266369  0.18145048  0.13806101     0.11400
C929        C  0.28343213  0.24105932  0.11309309    -0.03200
C930        C  0.30572659  0.21845657  0.10372593    -0.05800
C931        C  0.32619018  0.20437765  0.12493279    -0.20900
C932        C  0.32518729  0.21194272  0.15643069     0.24800
C933        C  0.30123303  0.23129040  0.16671072    -0.18500
C934        C  0.28078159  0.24522257  0.14579143    -0.08400
C935        C  0.34999734  0.20088106  0.17806162    -0.18700
C936        C  0.36045476  0.21918104  0.20121169    -0.23500
C937        C  0.38674898  0.21180944  0.22250980     0.26900
C938        C  0.40190788  0.23676617  0.23684114    -0.20300
C939        C  0.42581269  0.23172298  0.25808767    -0.09900
C940        C  0.43512432  0.20145058  0.26609137    -0.10500
C941        C  0.42000203  0.17623327  0.25183530    -0.03400
C942        C  0.39608362  0.18134507  0.23011729    -0.18500
H943        H  0.30998139  0.21359125  0.07969644     0.10600
H944        H  0.34410657  0.18895492  0.11634479     0.10600
H945        H  0.29852513  0.23624681  0.19113864     0.10300
H946        H  0.26350243  0.25990850  0.15628353     0.11400
H947        H  0.36153984  0.17899592  0.17318675     0.11500
H948        H  0.35046356  0.24225307  0.20354760     0.13400
H949        H  0.39517994  0.26046189  0.23159366     0.09900
H950        H  0.43677853  0.25173675  0.26856803     0.12000
H951        H  0.42653924  0.15262125  0.25757744     0.08600
H952        H  0.38452770  0.16153308  0.21994697     0.11400
C953        C  0.20938048  0.57215345  0.38945396    -0.03200
C954        C  0.23864648  0.58113736  0.40056089    -0.05800
C955        C  0.24150295  0.60500050  0.42207867    -0.20900
C956        C  0.21526488  0.62061696  0.43335360     0.24800
C957        C  0.18571589  0.61140685  0.42283845    -0.18500
C958        C  0.18282506  0.58728396  0.40105069    -0.08400
C959        C  0.22069925  0.64716183  0.45468793    -0.18700
C960        C  0.19956390  0.66033599  0.47363614    -0.23500
C961        C  0.20913270  0.68523957  0.49560428     0.26900
C962        C  0.19807743  0.68537421  0.52600058    -0.20300
C963        C  0.21187702  0.70438804  0.54849611    -0.09900
C964        C  0.23723362  0.72440430  0.54148611    -0.10500
C965        C  0.24588452  0.72554160  0.50964383    -0.03400
C966        C  0.23180175  0.70689734  0.48735639    -0.18500
H967        H  0.25959944  0.56990329  0.39237677     0.10600
H968        H  0.26454126  0.61149220  0.42975853     0.10600
H969        H  0.16498641  0.62319087  0.43070851     0.10300
H970        H  0.15995595  0.58087688  0.39288272     0.11400
H971        H  0.24451151  0.65533505  0.45601037     0.11500
H972        H  0.17628686  0.65091338  0.47526897     0.13400
H973        H  0.18041040  0.66893656  0.53300047     0.09900
H974        H  0.20435072  0.70058198  0.57176201     0.12000
H975        H  0.26541789  0.73834275  0.50109837     0.08600
H976        H  0.24021387  0.70812145  0.46375672     0.11400
C977        C  0.21355967  0.44283452  0.39431698    -0.03200
C978        C  0.18757677  0.42881282  0.40824890    -0.05800
C979        C  0.19116112  0.40943174  0.43425606    -0.20900
C980        C  0.22084627  0.40391095  0.44686722     0.24800
C981        C  0.24658845  0.41808184  0.43292602    -0.18500
C982        C  0.24306654  0.43706457  0.40695388    -0.08400
C983        C  0.22651423  0.38415815  0.47467283    -0.18700
C984        C  0.20744528  0.36151167  0.48481913    -0.23500
C985        C  0.21710573  0.33940208  0.50965939     0.26900
C986        C  0.20803963  0.30837323  0.50779462    -0.20300
C987        C  0.22085881  0.28602707  0.52761583    -0.09900
C988        C  0.24264678  0.29359676  0.55116242    -0.10500
C989        C  0.25020624  0.32579202  0.55332360    -0.03400
C990        C  0.23733694  0.34805196  0.53348561    -0.18500
H991        H  0.16449834  0.43302731  0.39921825     0.10600
H992        H  0.17067977  0.39941181  0.44469213     0.10600
H993        H  0.26970195  0.41437539  0.44213495     0.10300
H994        H  0.26357485  0.44763078  0.39703670     0.11400
H995        H  0.24904346  0.38667314  0.48565813     0.11500
H996        H  0.18613546  0.35665626  0.47235094     0.13400
H997        H  0.19259661  0.30091517  0.48948360     0.09900
H998        H  0.21496678  0.26251666  0.52231363     0.12000
H999        H  0.26824800  0.33460067  0.56800793     0.08600
H1000       H  0.24456473  0.37200649  0.53600180     0.11400
C1001       C  0.25315216  0.71303355  0.10272987    -0.03200
C1002       C  0.26200253  0.68137471  0.09845653    -0.05800
C1003       C  0.24842838  0.65719055  0.11494289    -0.20900
C1004       C  0.22554958  0.66284118  0.13702504     0.24800
C1005       C  0.21406090  0.69326947  0.13983867    -0.18500
C1006       C  0.22715042  0.71771684  0.12258779    -0.08400
C1007       C  0.21735500  0.63661658  0.15813067    -0.18700
C1008       C  0.20053337  0.63891858  0.18433023    -0.23500
C1009       C  0.20034632  0.61351922  0.20782606     0.26900
C1010       C  0.17385581  0.60815676  0.22598895    -0.20300
C1011       C  0.17422979  0.58559521  0.24951656    -0.09900
C1012       C  0.20142054  0.56859282  0.25583646    -0.10500
C1013       C  0.22788141  0.57403538  0.23763964    -0.03400
C1014       C  0.22734999  0.59610568  0.21391248    -0.18500
H1015       H  0.28056819  0.67407313  0.08355936     0.10600
H1016       H  0.25740309  0.63388819  0.11161462     0.10600
H1017       H  0.19592784  0.69873880  0.15623345     0.10300
H1018       H  0.21879488  0.74061358  0.12791158     0.11400
H1019       H  0.22826235  0.61438022  0.15318890     0.11500
H1020       H  0.18782367  0.65999723  0.18963328     0.13400
H1021       H  0.15289165  0.62149834  0.22199858     0.09900
H1022       H  0.15350352  0.58195467  0.26320412     0.12000
H1023       H  0.24919104  0.56133260  0.24187423     0.08600
H1024       H  0.24849875  0.60022541  0.20104366     0.11400
C1025       C  0.20658635  0.44145865  0.25604549    -0.03200
C1026       C  0.23148274  0.44325183  0.23517895    -0.05800
C1027       C  0.23298367  0.42365819  0.20961489    -0.20900
C1028       C  0.21011610  0.40113374  0.20456144     0.24800
C1029       C  0.18493960  0.39919635  0.22525338    -0.18500
C1030       C  0.18299935  0.41956168  0.25066218    -0.08400
C1031       C  0.21420984  0.38036202  0.17747413    -0.18700
C1032       C  0.20603384  0.35015191  0.17679136    -0.23500
C1033       C  0.21882748  0.32857537  0.15296095     0.26900
C1034       C  0.20306848  0.30133543  0.14483744    -0.20300
C1035       C  0.21614834  0.28000243  0.12387650    -0.09900
C1036       C  0.24523096  0.28561714  0.10934245    -0.10500
C1037       C  0.26140167  0.31240777  0.11995238    -0.03400
C1038       C  0.24842637  0.33343326  0.14060703    -0.18500
H1039       H  0.24977068  0.46017705  0.23840874     0.10600
H1040       H  0.25254119  0.42571983  0.19398504     0.10600
H1041       H  0.16669231  0.38234769  0.22163329     0.10300
H1042       H  0.16342610  0.41791308  0.26628550     0.11400
H1043       H  0.22792168  0.38965117  0.15852724     0.11500
H1044       H  0.19173537  0.34051551  0.19511240     0.13400
H1045       H  0.18073674  0.29624628  0.15514679     0.09900
H1046       H  0.20306601  0.25933242  0.11982260     0.12000
H1047       H  0.28519231  0.31689618  0.11346513     0.08600
H1048       H  0.26262032  0.35273004  0.14808003     0.11400
C1049       C  0.56872818  0.78788977  0.40182726    -0.03200
C1050       C  0.57767305  0.75824480  0.41220433    -0.05800
C1051       C  0.59874753  0.75476419  0.43635471    -0.20900
C1052       C  0.61177075  0.78071204  0.45093292     0.24800
C1053       C  0.60360634  0.81059674  0.44022243    -0.18500
C1054       C  0.58219863  0.81412556  0.41580366    -0.08400
C1055       C  0.63230108  0.77467503  0.47799543    -0.18700
C1056       C  0.65117234  0.79534551  0.49189576    -0.23500
C1057       C  0.67172633  0.78528833  0.51778908     0.26900
C1058       C  0.70240009  0.79549569  0.51914324    -0.20300
C1059       C  0.72365816  0.78140859  0.53936017    -0.09900
C1060       C  0.71503223  0.75677156  0.55970036    -0.10500
C1061       C  0.68292335  0.74885619  0.55935330    -0.03400
C1062       C  0.66188507  0.76306387  0.53926547    -0.18500
H1063       H  0.56795534  0.73745326  0.40200109     0.10600
H1064       H  0.60457421  0.73147566  0.44397441     0.10600
H1065       H  0.61294245  0.83118864  0.45105932     0.10300
H1066       H  0.57574804  0.83726357  0.40830536     0.11400
H1067       H  0.63272844  0.75084459  0.48633429     0.11500
H1068       H  0.65372431  0.81863101  0.48263540     0.13400
H1069       H  0.71065924  0.81257395  0.50266223     0.09900
H1070       H  0.74733325  0.78774454  0.53565552     0.12000
H1071       H  0.67333266  0.72989882  0.57237008     0.08600
H1072       H  0.63800364  0.75525493  0.53942629     0.11400
C1073       C  0.28664888  0.75576993  0.55230887    -0.03200
C1074       C  0.31772277  0.74468384  0.55497099    -0.05800
C1075       C  0.34200005  0.75725728  0.53796912    -0.20900
C1076       C  0.33694503  0.78104093  0.51665210     0.24800
C1077       C  0.30707204  0.79392648  0.51449883    -0.18500
C1078       C  0.28251850  0.78181432  0.53224206    -0.08400
C1079       C  0.36329012  0.78899967  0.49584331    -0.18700
C1080       C  0.36103677  0.80384953  0.46847876    -0.23500
C1081       C  0.38713756  0.80269469  0.44597575     0.26900
C1082       C  0.39468544  0.82869529  0.42787511    -0.20300
C1083       C  0.41911281  0.82718307  0.40641131    -0.09900
C1084       C  0.43582232  0.79936205  0.40218215    -0.10500
C1085       C  0.42777833  0.77327886  0.41993664    -0.03400
C1086       C  0.40382394  0.77492934  0.44158117    -0.18500
H1087       H  0.32435495  0.72506178  0.56887531     0.10600
H1088       H  0.36482733  0.74687159  0.54032376     0.10600
H1089       H  0.30220212  0.81257881  0.49841697     0.10300
H1090       H  0.25984813  0.79105524  0.52736882     0.11400
H1091       H  0.38569789  0.77901192  0.50189796     0.11500
H1092       H  0.33971472  0.81536045  0.46159559     0.13400
H1093       H  0.38187412  0.85019342  0.43054852     0.09900
H1094       H  0.42456469  0.84756997  0.39276500     0.12000
H1095       H  0.43996341  0.75144695  0.41703728     0.08600
H1096       H  0.39792307  0.75417379  0.45447032     0.11400
C1097       C  0.70596675  0.76393939  0.10275570    -0.03200
C1098       C  0.71170106  0.79045998  0.12161248    -0.05800
C1099       C  0.68972362  0.80158344  0.14283414    -0.20900
C1100       C  0.66120735  0.78663816  0.14646613     0.24800
C1101       C  0.65361931  0.76271542  0.12601391    -0.18500
C1102       C  0.67544112  0.75130839  0.10513570    -0.08400
C1103       C  0.64076874  0.79460115  0.17309999    -0.18700
C1104       C  0.62355712  0.77270465  0.18748013    -0.23500
C1105       C  0.60373492  0.77758012  0.21533058     0.26900
C1106       C  0.58874736  0.75153631  0.22799101    -0.20300
C1107       C  0.56930286  0.75441476  0.25366997    -0.09900
C1108       C  0.56419287  0.78351801  0.26737577    -0.10500
C1109       C  0.57942982  0.80962744  0.25509070    -0.03400
C1110       C  0.59901608  0.80674729  0.22933525    -0.18500
H1111       H  0.73388531  0.80136374  0.12266423     0.10600
H1112       H  0.69602166  0.82050666  0.15809754     0.10600
H1113       H  0.63119832  0.75146657  0.12716851     0.10300
H1114       H  0.66813540  0.73063064  0.09326654     0.11400
H1115       H  0.64203537  0.81799780  0.18220178     0.11500
H1116       H  0.62473942  0.74902755  0.17892027     0.13400
H1117       H  0.59188036  0.72875840  0.21780440     0.09900
H1118       H  0.55786424  0.73384398  0.26247281     0.12000
H1119       H  0.57593943  0.83238450  0.26517727     0.08600
H1120       H  0.60993242  0.82748959  0.22047714     0.11400
C1121       C  0.43256260  0.79068328  0.27370126    -0.03200
C1122       C  0.41674896  0.76244124  0.26994409    -0.05800
C1123       C  0.39201304  0.75998659  0.24946022    -0.20900
C1124       C  0.38236720  0.78551668  0.23174159     0.24800
C1125       C  0.39795984  0.81406490  0.23536878    -0.18500
C1126       C  0.42287826  0.81661844  0.25631877    -0.08400
C1127       C  0.35591678  0.78043664  0.21021686    -0.18700
C1128       C  0.34840312  0.79853299  0.18582403    -0.23500
C1129       C  0.32482488  0.78845180  0.16257683     0.26900
C1130       C  0.32797670  0.79754613  0.13168884    -0.20300
C1131       C  0.30968493  0.78405627  0.10851735    -0.09900
C1132       C  0.28723381  0.76075948  0.11512241    -0.10500
C1133       C  0.28340976  0.75343752  0.14704051    -0.03400
C1134       C  0.30107269  0.76759541  0.17010353    -0.18500
H1135       H  0.42335131  0.74199458  0.28303786     0.10600
H1136       H  0.38047799  0.73774560  0.24729804     0.10600
H1137       H  0.39085927  0.83441330  0.22246364     0.10300
H1138       H  0.43454028  0.83872324  0.25887447     0.11400
H1139       H  0.34370707  0.75864013  0.21324361     0.11500
H1140       H  0.36205047  0.81907363  0.18078282     0.13400
H1141       H  0.34616155  0.81357956  0.12508034     0.09900
H1142       H  0.31599212  0.78977349  0.08524808     0.12000
H1143       H  0.26858964  0.73531393  0.15534947     0.08600
H1144       H  0.29685371  0.76084587  0.19386353     0.11400
C1145       C  0.75921951  0.71899893  0.54943204    -0.03200
C1146       C  0.78528319  0.69932350  0.55530260    -0.05800
C1147       C  0.79745588  0.67930854  0.53267981    -0.20900
C1148       C  0.78374154  0.67724073  0.50344230     0.24800
C1149       C  0.75941936  0.69754186  0.49632354    -0.18500
C1150       C  0.74717622  0.71741797  0.51866500    -0.08400
C1151       C  0.79313481  0.65227561  0.48141391    -0.18700
C1152       C  0.77161851  0.63737728  0.46428388    -0.23500
C1153       C  0.77756290  0.61142141  0.44231212     0.26900
C1154       C  0.75210625  0.59322261  0.43347713    -0.20300
C1155       C  0.75515414  0.57019771  0.41103949    -0.09900
C1156       C  0.78380109  0.56471574  0.39651467    -0.10500
C1157       C  0.80969254  0.58231952  0.40579942    -0.03400
C1158       C  0.80662234  0.60554552  0.42852688    -0.18500
H1159       H  0.79534528  0.69691275  0.57775624     0.10600
H1160       H  0.81632331  0.66380853  0.53882514     0.10600
H1161       H  0.74869573  0.69712105  0.47363881     0.10300
H1162       H  0.72653575  0.72953504  0.51139959     0.11400
H1163       H  0.81713050  0.64458244  0.48118795     0.11500
H1164       H  0.74741259  0.64375201  0.46748212     0.13400
H1165       H  0.72946207  0.59716606  0.44366129     0.09900
H1166       H  0.73473611  0.55704842  0.40463598     0.12000
H1167       H  0.83204186  0.57873717  0.39491306     0.08600
H1168       H  0.82666556  0.61942941  0.43441783     0.11400
C1169       C  0.79063346  0.43148340  0.38459745    -0.03200
C1170       C  0.81892251  0.42131060  0.39745162    -0.05800
C1171       C  0.81947485  0.39736012  0.41957222    -0.20900
C1172       C  0.79177100  0.38343384  0.42949914     0.24800
C1173       C  0.76369804  0.39265632  0.41554258    -0.18500
C1174       C  0.76313888  0.41641106  0.39348805    -0.08400
C1175       C  0.79209908  0.36002557  0.45499574    -0.18700
C1176       C  0.76944342  0.35993648  0.47646737    -0.23500
C1177       C  0.76569728  0.33743684  0.50247040     0.26900
C1178       C  0.74218616  0.34373066  0.52365937    -0.20300
C1179       C  0.73335395  0.32196691  0.54567701    -0.09900
C1180       C  0.74836749  0.29256076  0.54887758    -0.10500
C1181       C  0.77338719  0.28723962  0.52793776    -0.03400
C1182       C  0.78188202  0.30920917  0.50522749    -0.18500
H1183       H  0.84053988  0.43227092  0.39088553     0.10600
H1184       H  0.84142514  0.39043421  0.42970747     0.10600
H1185       H  0.74202662  0.38165516  0.42185767     0.10300
H1186       H  0.74101169  0.42324653  0.38368708     0.11400
H1187       H  0.81159596  0.34415293  0.45682876     0.11500
H1188       H  0.75190245  0.37806596  0.47493419     0.13400
H1189       H  0.72895538  0.36512222  0.52201721     0.09900
H1190       H  0.71264531  0.32832830  0.55806588     0.12000
H1191       H  0.78530322  0.26541421  0.52716770     0.08600
H1192       H  0.79995667  0.30318592  0.48893474     0.11400
C1193       C  0.78458738  0.44538143  0.25238589    -0.03200
C1194       C  0.75577907  0.43938130  0.23842677    -0.05800
C1195       C  0.75343287  0.41893580  0.21359032    -0.20900
C1196       C  0.77969522  0.40355026  0.20200778     0.24800
C1197       C  0.80881566  0.40981020  0.21551705    -0.18500
C1198       C  0.81121184  0.43065393  0.24048531    -0.08400
C1199       C  0.77476171  0.38135327  0.17603817    -0.18700
C1200       C  0.79509055  0.35958402  0.16618247    -0.23500
C1201       C  0.78571035  0.33551118  0.14313498     0.26900
C1202       C  0.79799357  0.30547524  0.14502919    -0.20300
C1203       C  0.78500662  0.28106020  0.12787304    -0.09900
C1204       C  0.75895847  0.28565864  0.10796511    -0.10500
C1205       C  0.74904646  0.31709832  0.10459063    -0.03400
C1206       C  0.76248868  0.34130032  0.12121771    -0.18500
H1207       H  0.73480979  0.45048254  0.24674808     0.10600
H1208       H  0.73072423  0.41482099  0.20362563     0.10600
H1209       H  0.82970316  0.39886930  0.20692827     0.10300
H1210       H  0.83376089  0.43497708  0.25066886     0.11400
H1211       H  0.75161405  0.38147570  0.16612904     0.11500
H1212       H  0.81746252  0.35712204  0.17744795     0.13400
H1213       H  0.81614116  0.30031074  0.16163667     0.09900
H1214       H  0.79332146  0.25824837  0.13357478     0.12000
H1215       H  0.72947055  0.32403029  0.09080709     0.08600
H1216       H  0.75341092  0.36451211  0.11779577     0.11400
C1217       C  0.75304636  0.73004087  0.11379913    -0.03200
C1218       C  0.74218780  0.72998438  0.14502839    -0.05800
C1219       C  0.75536499  0.71135454  0.16788154    -0.20900
C1220       C  0.77942519  0.69076808  0.16089303     0.24800
C1221       C  0.79264846  0.69214265  0.13135809    -0.18500
C1222       C  0.77978355  0.71128404  0.10825880    -0.08400
C1223       C  0.78875484  0.66600421  0.18326576    -0.18700
C1224       C  0.76746509  0.65253898  0.20187723    -0.23500
C1225       C  0.77310254  0.62603027  0.22331050     0.26900
C1226       C  0.74716832  0.60929456  0.23362912    -0.20300
C1227       C  0.75044264  0.58468133  0.25438301    -0.09900
C1228       C  0.77982074  0.57610146  0.26560184    -0.10500
C1229       C  0.80596864  0.59283575  0.25545342    -0.03400
C1230       C  0.80266531  0.61765584  0.23450159    -0.18500
H1231       H  0.72184121  0.74228715  0.15258700     0.10600
H1232       H  0.74538905  0.71198099  0.19088322     0.10600
H1233       H  0.81149577  0.67658804  0.12536169     0.10300
H1234       H  0.78910866  0.70802415  0.08555196     0.11400
H1235       H  0.81225868  0.65697154  0.18229985     0.11500
H1236       H  0.74348276  0.66013769  0.19999283     0.13400
H1237       H  0.72410370  0.61525475  0.22552708     0.09900
H1238       H  0.72981365  0.57231426  0.26161547     0.12000
H1239       H  0.82890252  0.58689581  0.26387435     0.08600
H1240       H  0.82311321  0.63042760  0.22758111     0.11400
C1241       C  0.56132146  0.57265943  0.64526600    -0.03200
C1242       C  0.57079435  0.58596259  0.67350016    -0.05800
C1243       C  0.59385010  0.60904057  0.67402334    -0.20900
C1244       C  0.60818274  0.61866402  0.64643522     0.24800
C1245       C  0.59795170  0.60599562  0.61825295    -0.18500
C1246       C  0.57488927  0.58335094  0.61768229    -0.08400
C1247       C  0.63357543  0.64208488  0.64665211    -0.18700
C1248       C  0.65814354  0.63870137  0.62762503    -0.23500
C1249       C  0.68199264  0.66265173  0.62027797     0.26900
C1250       C  0.70372139  0.65515841  0.59755312    -0.20300
C1251       C  0.72300875  0.67764827  0.58477793    -0.09900
C1252       C  0.72242072  0.70920825  0.59465500    -0.10500
C1253       C  0.70181903  0.71570210  0.61968318    -0.03400
C1254       C  0.68183096  0.69303021  0.63198799    -0.18500
H1255       H  0.56057900  0.57838873  0.69512106     0.10600
H1256       H  0.60103800  0.61879687  0.69598138     0.10600
H1257       H  0.60778442  0.61367868  0.59648515     0.10300
H1258       H  0.56795559  0.57393702  0.59549357     0.11400
H1259       H  0.63151209  0.66200953  0.66183570     0.11500
H1260       H  0.65978661  0.61713209  0.61463173     0.13400
H1261       H  0.70455184  0.63189580  0.58799680     0.09900
H1262       H  0.73671639  0.66944871  0.56567861     0.12000
H1263       H  0.69807753  0.73887083  0.62785667     0.08600
H1264       H  0.66525156  0.69998810  0.64943576     0.11400
C1265       C  0.42921405  0.56592838  0.63827330    -0.03200
C1266       C  0.42172686  0.58350732  0.66467476    -0.05800
C1267       C  0.39854748  0.60638619  0.66335278    -0.20900
C1268       C  0.38186472  0.61151963  0.63589900     0.24800
C1269       C  0.38938170  0.59386323  0.60951571    -0.18500
C1270       C  0.41283818  0.57142932  0.61068545    -0.08400
C1271       C  0.35794474  0.63648041  0.63448443    -0.18700
C1272       C  0.33242278  0.63361239  0.61670999    -0.23500
C1273       C  0.31058835  0.65928447  0.60877388     0.26900
C1274       C  0.29270115  0.65566901  0.58216166    -0.20300
C1275       C  0.27489913  0.67999547  0.57056694    -0.09900
C1276       C  0.27267440  0.70934614  0.58573246    -0.10500
C1277       C  0.29014114  0.71200760  0.61366041    -0.03400
C1278       C  0.30856410  0.68746834  0.62497359    -0.18500
H1279       H  0.43420096  0.57998178  0.68617438     0.10600
H1280       H  0.39350238  0.61998183  0.68383292     0.10600
H1281       H  0.37771636  0.59790440  0.58766943     0.10300
H1282       H  0.41820759  0.55840420  0.58992156     0.11400
H1283       H  0.36216042  0.65761488  0.64743827     0.11500
H1284       H  0.32867857  0.61161585  0.60497162     0.13400
H1285       H  0.29400473  0.63434588  0.56889093     0.09900
H1286       H  0.26484786  0.67550470  0.54816985     0.12000
H1287       H  0.29176480  0.73337777  0.62615327     0.08600
H1288       H  0.32189809  0.69115752  0.64585875     0.11400
C1289       C  0.43799525  0.43219923  0.63210423    -0.03200
C1290       C  0.43385783  0.41894287  0.60269349    -0.05800
C1291       C  0.41374382  0.39401615  0.59843580    -0.20900
C1292       C  0.39680348  0.38170330  0.62329169     0.24800
C1293       C  0.40073562  0.39484517  0.65290337    -0.18500
C1294       C  0.42128153  0.41985165  0.65726043    -0.08400
C1295       C  0.37613724  0.35483669  0.61666775    -0.18700
C1296       C  0.35211556  0.34529011  0.63431605    -0.23500
C1297       C  0.33034029  0.32089262  0.62294533     0.26900
C1298       C  0.29868277  0.32278695  0.62984907    -0.20300
C1299       C  0.27715430  0.30404750  0.61423238    -0.09900
C1300       C  0.28645277  0.28311430  0.59043211    -0.10500
C1301       C  0.31905755  0.27902016  0.58699711    -0.03400
C1302       C  0.34036151  0.29729711  0.60302087    -0.18500
H1303       H  0.44641182  0.42768208  0.58279998     0.10600
H1304       H  0.41132697  0.38436588  0.57539961     0.10600
H1305       H  0.38846285  0.38565124  0.67272456     0.10300
H1306       H  0.42407012  0.42951803  0.68022512     0.11400
H1307       H  0.37958507  0.34379360  0.59433741     0.11500
H1308       H  0.34626985  0.35773051  0.65535859     0.13400
H1309       H  0.29027325  0.34042287  0.64564187     0.09900
H1310       H  0.25308082  0.30926814  0.61831434     0.12000
H1311       H  0.32913565  0.26259880  0.57116687     0.08600
H1312       H  0.36484734  0.29367213  0.59869177     0.11400
C1313       C  0.70729226  0.28172313  0.58950734    -0.03200
C1314       C  0.67496028  0.27763778  0.58411145    -0.05800
C1315       C  0.65263349  0.29638753  0.59808710    -0.20900
C1316       C  0.66102069  0.32089083  0.61747621     0.24800
C1317       C  0.69249495  0.32450036  0.62492052    -0.18500
C1318       C  0.71508492  0.30534415  0.61131197    -0.08400
C1319       C  0.63642938  0.34398028  0.62535780    -0.18700
C1320       C  0.64056621  0.37068998  0.64106103    -0.23500
C1321       C  0.61592191  0.39492321  0.64127293     0.26900
C1322       C  0.60936656  0.41176848  0.66829847    -0.20300
C1323       C  0.58561621  0.43414665  0.66845966    -0.09900
C1324       C  0.56868449  0.44063709  0.64131972    -0.10500
C1325       C  0.57611996  0.42452557  0.61406659    -0.03400
C1326       C  0.59933001  0.40186108  0.61406960    -0.18500
H1327       H  0.66576671  0.26181456  0.56725868     0.10600
H1328       H  0.62852291  0.29299178  0.59177714     0.10600
H1329       H  0.70019679  0.34330444  0.63956441     0.10300
H1330       H  0.73870166  0.31208637  0.61531544     0.11400
H1331       H  0.61360183  0.33982462  0.61544272     0.11500
H1332       H  0.66203873  0.37539574  0.65324196     0.13400
H1333       H  0.62217153  0.40714614  0.68940008     0.09900
H1334       H  0.58059253  0.44646336  0.68972665     0.12000
H1335       H  0.56366387  0.42912380  0.59275218     0.08600
H1336       H  0.60451275  0.38991855  0.59262580     0.11400
loop_ 
_geom_bond_atom_site_label_1 
_geom_bond_atom_site_label_2 
_geom_bond_distance 
_geom_bond_site_symmetry_2 
_ccdc_geom_bond_type 
O1            V9   1.899       .  S
O1           C11   1.265       .  A
O2            V9   1.900       .  S
O2           C12   1.265       .  A
O3            V9   1.893       .  S
O3           C13   1.264       .  A
O4            V9   1.891       .  S
O4           C14   1.263       .  A
O5           V10   1.917       .  S
O5           C14   1.268       .  A
O6           V10   1.913       .  S
O6           C13   1.267       .  A
O7           V10   1.905       .  S
O7           C12   1.265       .  A
O8           V10   1.907       .  S
O8           C11   1.266       .  A
V9           V10   2.086       .  T
C11        C1324   1.482       .  S
C12        C1265   1.481       .  S
C13        C1241   1.485       .  S
C14        C1289   1.486       .  S
O15          V23   1.911       .  S
O15          C25   1.267       .  A
O16          V23   1.910       .  S
O16          C26   1.266       .  A
O17          V23   1.917       .  S
O17          C27   1.268       .  A
O18          V23   1.917       .  S
O18          C28   1.268       .  A
O19          V24   1.889       .  S
O19          C28   1.263       .  A
O20          V24   1.891       .  S
O20          C27   1.264       .  A
O21          V24   1.896       .  S
O21          C26   1.265       .  A
O22          V24   1.898       .  S
O22          C25   1.265       .  A
V23          V24   2.085       .  T
C25        C1169   1.486       .  S
C26        C1228   1.485       .  S
C27        C1156   1.486       .  S
C28        C1193   1.485       .  S
O29          V37   1.904       .  S
O29          C39   1.265       .  A
O30          V37   1.905       .  S
O30          C40   1.265       .  A
O31          V37   1.922       .  S
O31          C41   1.270       .  A
O32          V37   1.919       .  S
O32          C42   1.269       .  A
O33          V38   1.881       .  S
O33          C42   1.261       .  A
O34          V38   1.882       .  S
O34          C41   1.261       .  A
O35          V38   1.899       .  S
O35          C40   1.266       .  A
O36          V38   1.899       .  S
O36          C39   1.265       .  A
V37          V38   2.085       .  T
C39        C1108   1.482       .  S
C40        C1084   1.482       .  S
C41        C1049   1.485       .  S
C42        C1121   1.482       .  S
O43          V51   1.896       .  S
O43          C53   1.265       .  A
O44          V51   1.896       .  S
O44          C54   1.264       .  A
O45          V51   1.889       .  S
O45          C55   1.263       .  A
O46          V51   1.889       .  S
O46          C56   1.263       .  A
O47          V52   1.916       .  S
O47          C56   1.268       .  A
O48          V52   1.915       .  S
O48          C55   1.268       .  A
O49          V52   1.912       .  S
O49          C54   1.267       .  A
O50          V52   1.913       .  S
O50          C53   1.267       .  A
V51          V52   2.086       .  T
C53         C977   1.487       .  S
C54        C1012   1.484       .  S
C55         C953   1.485       .  S
C56        C1025   1.480       .  S
O57          V65   1.913       .  S
O57          C67   1.267       .  A
O58          V65   1.907       .  S
O58          C68   1.266       .  A
O59          V65   1.915       .  S
O59          C69   1.267       .  A
O60          V65   1.919       .  S
O60          C70   1.269       .  A
O61          V66   1.896       .  S
O61          C70   1.265       .  A
O62          V66   1.895       .  S
O62          C69   1.263       .  A
O63          V66   1.901       .  S
O63          C68   1.266       .  A
O64          V66   1.898       .  S
O64          C67   1.265       .  A
V65          V66   2.083       .  T
C67         C857   1.486       .  S
C68         C905   1.484       .  S
C69         C892   1.476       .  S
C70         C940   1.491       .  S
O71          V79   1.889       .  S
O71          C81   1.262       .  A
O72          V79   1.890       .  S
O72          C82   1.263       .  A
O73          V79   1.903       .  S
O73          C83   1.267       .  A
O74          V79   1.906       .  S
O74          C84   1.267       .  A
O75          V80   1.902       .  S
O75          C84   1.265       .  A
O76          V80   1.905   1_556  S
O76          C83   1.265   1_556  A
O77          V80   1.914       .  S
O77          C82   1.268       .  A
O78          V80   1.915   1_556  S
O78          C81   1.268   1_556  A
V79          V80   2.083       .  T
C81         C844   1.479       .  S
C82         C785   1.484       .  S
C83         C809   1.485       .  S
C84         C772   1.484       .  S
C85          C86   1.681       .  S
C85        C1060   1.589       .  S
C85        C1145   1.595       .  S
C85        C1252   1.591       .  S
C86         C700   1.587       .  S
C86         C713   1.591       .  S
C86         C748   1.589       .  S
C87          C88   1.684       .  S
C87         C881   1.593       .  S
C87        C1180   1.592       .  S
C87        C1313   1.590       .  S
C88         C617   1.591       .  S
C88         C641   1.586       .  S
C88         C676   1.595       .  S
C89          C90   1.681       .  S
C89         C964   1.590       .  S
C89        C1073   1.589       .  S
C89        C1276   1.589       .  S
C90         C556   1.594       .  S
C90         C569   1.594       .  S
C90         C593   1.590       .  S
C91          C92   1.683       .  S
C91         C796   1.589       .  S
C91        C1097   1.590       .  S
C91        C1217   1.592       .  S
C92         C484   1.588       .  S
C92         C508   1.587       .  S
C92         C521   1.590       .  S
C93          C94   1.679       .  S
C93         C868   1.592       .  S
C93         C988   1.593       .  S
C93        C1300   1.585       .  S
C94         C412   1.592       .  S
C94         C425   1.594       .  S
C94         C449   1.589       .  S
C95          C96   1.680       .  S
C95         C820   1.590       .  S
C95        C1001   1.593       .  S
C95        C1132   1.586       .  S
C96         C340   1.590       .  S
C96         C353   1.594       .  S
C96         C377   1.590       .  S
C97          C98   1.682       .  S
C97         C761   1.587       .  S
C97         C916   1.589       .  S
C97        C1204   1.590       .  S
C98         C257   1.594       .  S
C98         C281   1.595       .  S
C98         C305   1.589       .  S
C99         C100   1.680       .  S
C99         C833   1.589       .  S
C99         C929   1.595       .  S
C99        C1036   1.584       .  S
C100        C185   1.597       .  S
C100        C209   1.587       .  S
C100        C233   1.591       .  S
O101        V109   1.908   1_565  S
O101        C111   1.267       .  A
O102        V109   1.914       .  S
O102        C112   1.267       .  A
O103        V109   1.907       .  S
O103        C113   1.266       .  A
O104        V109   1.913   1_565  S
O104        C114   1.267       .  A
O105        V110   1.897   1_565  S
O105        C114   1.265       .  A
O106        V110   1.900       .  S
O106        C113   1.265       .  A
O107        V110   1.893       .  S
O107        C112   1.264       .  A
O108        V110   1.897   1_565  S
O108        C111   1.265       .  A
V109        V110   2.085       .  T
C111        C364   1.484       .  S
C112        C436   1.484       .  S
C113        C220   1.480       .  S
C114        C580   1.488       .  S
O115        V123   1.898       .  S
O115        C125   1.265       .  A
O116        V123   1.897   1_455  S
O116        C126   1.264       .  A
O117        V123   1.905   1_455  S
O117        C127   1.267       .  A
O118        V123   1.903       .  S
O118        C128   1.265       .  A
O119        V124   1.903       .  S
O119        C128   1.265       .  A
O120        V124   1.902   1_455  S
O120        C127   1.264       .  A
O121        V124   1.912   1_455  S
O121        C126   1.267       .  A
O122        V124   1.907       .  S
O122        C125   1.266       .  A
V123        V124   2.086       .  T
C125        C292   1.484       .  S
C126        C460   1.480       .  S
C127        C196   1.484       .  S
C128        C652   1.480       .  S
O129        V137   1.882       .  S
O129        C139   1.261       .  A
O130        V137   1.881   1_645  S
O130        C140   1.262       .  A
O131        V137   1.907   1_545  S
O131        C141   1.266       .  A
O132        V137   1.904   1_655  S
O132        C142   1.267       .  A
O133        V138   1.902   1_655  S
O133        C142   1.264       .  A
O134        V138   1.899   1_545  S
O134        C141   1.264       .  A
O135        V138   1.922   1_645  S
O135        C140   1.269       .  A
O136        V138   1.924       .  S
O136        C139   1.270       .  A
V137        V138   2.084       .  T
C139        C388   1.487       .  S
C140        C316   1.484       .  S
C141        C244   1.477       .  S
C142        C532   1.483       .  S
O143        V151   1.891       .  S
O143        C153   1.262       .  A
O144        V151   1.891   1_545  S
O144        C154   1.263       .  A
O145        V151   1.900   1_545  S
O145        C155   1.266       .  A
O146        V151   1.903       .  S
O146        C156   1.266       .  A
O147        V152   1.905   1_565  S
O147        C156   1.265       .  A
O148        V152   1.909       .  S
O148        C155   1.266       .  A
O149        V152   1.913       .  S
O149        C154   1.268       .  A
O150        V152   1.915   1_565  S
O150        C153   1.267       .  A
V151        V152   2.085   1_565  T
C153        C497   1.474       .  S
C154        C628   1.484       .  S
C155        C268   1.486       .  S
C156        C724   1.485       .  S
O157        V165   1.901   1_565  S
O157        C167   1.265       .  A
O158        V165   1.902   1_655  S
O158        C168   1.266       .  A
O159        V165   1.885   1_665  S
O159        C169   1.263       .  A
O160        V165   1.888       .  S
O160        C170   1.263       .  A
O161        V166   1.915   1_455  S
O161        C170   1.268       .  A
O162        V166   1.921   1_565  S
O162        C169   1.269       .  A
O163        V166   1.913       .  S
O163        C168   1.267       .  A
O164        V166   1.912   1_465  S
O164        C167   1.267       .  A
V165        V166   2.083   1_455  T
C167        C604   1.481       .  S
C168        C665   1.490       .  S
C169        C737   1.486       .  S
C170        C401   1.481       .  S
O171        V179   1.895       .  S
O171        C181   1.264       .  A
O172        V179   1.894   1_655  S
O172        C182   1.264       .  A
O173        V179   1.887   1_655  S
O173        C183   1.263       .  A
O174        V179   1.889       .  S
O174        C184   1.263       .  A
O175        V180   1.917       .  S
O175        C184   1.269       .  A
O176        V180   1.916   1_655  S
O176        C183   1.268       .  A
O177        V180   1.910   1_655  S
O177        C182   1.266       .  A
O178        V180   1.909       .  S
O178        C181   1.266       .  A
V179        V180   2.084       .  T
C181        C329   1.480       .  S
C182        C689   1.481       .  S
C183        C473   1.483       .  S
C184        C545   1.485       .  S
C185        C186   1.425       .  A
C185        C190   1.430       .  A
C186        C187   1.407       .  A
C186        H199   1.067       .  S
C187        C188   1.399   1_554  A
C187        H200   1.083       .  S
C188        C189   1.396       .  A
C188        C191   1.492       .  S
C189        C190   1.390   1_556  A
C189        H201   1.083       .  S
C190        H202   1.078       .  S
C191        C192   1.353       .  D
C191        H203   1.084       .  S
C192        C193   1.492       .  S
C192        H204   1.086       .  S
C193        C194   1.406       .  A
C193        C198   1.408       .  A
C194        C195   1.396       .  A
C194        H205   1.083       .  S
C195        C196   1.403       .  A
C195        H206   1.083       .  S
C196        C197   1.408       .  A
C197        C198   1.404       .  A
C197        H207   1.083       .  S
C198        H208   1.080       .  S
C209        C210   1.424       .  A
C209        C214   1.426       .  A
C210        C211   1.398       .  A
C210        H223   1.075       .  S
C211        C212   1.396       .  A
C211        H224   1.084   1_554  S
C212        C213   1.399       .  A
C212        C215   1.486   1_554  S
C213        C214   1.399       .  A
C213        H225   1.083       .  S
C214        H226   1.072       .  S
C215        C216   1.345       .  D
C215        H227   1.087       .  S
C216        C217   1.484       .  S
C216        H228   1.086       .  S
C217        C218   1.403       .  A
C217        C222   1.406       .  A
C218        C219   1.402       .  A
C218        H229   1.083       .  S
C219        C220   1.406       .  A
C219        H230   1.083       .  S
C220        C221   1.405       .  A
C221        C222   1.399       .  A
C221        H231   1.083       .  S
C222        H232   1.083       .  S
C233        C234   1.422       .  A
C233        C238   1.430       .  A
C234        C235   1.403       .  A
C234        H247   1.070       .  S
C235        C236   1.398       .  A
C235        H248   1.083       .  S
C236        C237   1.395       .  A
C236        C239   1.486       .  S
C237        C238   1.393       .  A
C237        H249   1.083       .  S
C238        H250   1.075       .  S
C239        C240   1.345       .  D
C239        H251   1.087       .  S
C240        C241   1.480       .  S
C240        H252   1.086       .  S
C241        C242   1.401       .  A
C241        C246   1.406       .  A
C242        C243   1.398       .  A
C242        H253   1.083       .  S
C243        C244   1.405       .  A
C243        H254   1.083       .  S
C244        C245   1.404       .  A
C245        C246   1.402       .  A
C245        H255   1.083       .  S
C246        H256   1.083       .  S
C257        C258   1.427       .  A
C257        C262   1.427       .  A
C258        C259   1.392       .  A
C258        H271   1.077       .  S
C259        C260   1.394       .  A
C259        H272   1.085       .  S
C260        C261   1.403       .  A
C260        C263   1.493   1_554  S
C261        C262   1.408       .  A
C261        H273   1.080       .  S
C262        H274   1.069       .  S
C263        C264   1.349       .  D
C263        H275   1.087       .  S
C264        C265   1.492       .  S
C264        H276   1.084       .  S
C265        C266   1.405       .  A
C265        C270   1.407       .  A
C266        C267   1.405       .  A
C266        H277   1.083       .  S
C267        C268   1.408       .  A
C267        H278   1.083       .  S
C268        C269   1.405       .  A
C269        C270   1.397       .  A
C269        H279   1.083       .  S
C270        H280   1.083       .  S
C281        C282   1.429       .  A
C281        C286   1.425       .  A
C282        C283   1.395   1_554  A
C282        H295   1.075       .  S
C283        C284   1.397       .  A
C283        H296   1.083       .  S
C284        C285   1.397   1_556  A
C284        C287   1.491       .  S
C285        C286   1.403       .  A
C285        H297   1.083       .  S
C286        H298   1.069       .  S
C287        C288   1.351       .  D
C287        H299   1.084       .  S
C288        C289   1.492       .  S
C288        H300   1.086       .  S
C289        C290   1.405       .  A
C289        C294   1.409       .  A
C290        C291   1.397       .  A
C290        H301   1.083       .  S
C291        C292   1.404       .  A
C291        H302   1.083       .  S
C292        C293   1.406       .  A
C293        C294   1.403       .  A
C293        H303   1.083       .  S
C294        H304   1.080       .  S
C305        C306   1.425       .  A
C305        C310   1.425       .  A
C306        C307   1.399       .  A
C306        H319   1.068       .  S
C307        C308   1.394       .  A
C307        H320   1.084       .  S
C308        C309   1.401       .  A
C308        C311   1.491       .  S
C309        C310   1.396       .  A
C309        H321   1.083       .  S
C310        H322   1.072       .  S
C311        C312   1.347       .  D
C311        H323   1.084       .  S
C312        C313   1.488       .  S
C312        H324   1.086       .  S
C313        C314   1.400       .  A
C313        C318   1.412       .  A
C314        C315   1.388       .  A
C314        H325   1.084       .  S
C315        C316   1.404       .  A
C315        H326   1.083       .  S
C316        C317   1.407       .  A
C317        C318   1.410       .  A
C317        H327   1.083       .  S
C318        H328   1.081       .  S
C329        C330   1.406       .  A
C329        C334   1.404       .  A
C330        C331   1.404       .  A
C330        H343   1.083       .  S
C331        C332   1.404       .  A
C331        H344   1.083       .  S
C332        C333   1.407       .  A
C332        C335   1.488       .  S
C333        C334   1.395       .  A
C333        H345   1.082       .  S
C334        H346   1.083       .  S
C335        C336   1.348       .  D
C335        H347   1.085       .  S
C336        C337   1.487       .  S
C336        H348   1.087       .  S
C337        C338   1.393       .  A
C337        C342   1.401   1_556  A
C338        C339   1.391   1_556  A
C338        H349   1.084       .  S
C339        C340   1.427       .  A
C339        H350   1.075       .  S
C340        C341   1.425       .  A
C341        C342   1.405       .  A
C341        H351   1.069       .  S
C342        H352   1.082       .  S
C353        C354   1.425       .  A
C353        C358   1.429       .  A
C354        C355   1.403       .  A
C354        H367   1.066       .  S
C355        C356   1.397       .  A
C355        H368   1.083   1_554  S
C356        C357   1.398       .  A
C356        C359   1.492   1_554  S
C357        C358   1.395       .  A
C357        H369   1.083       .  S
C358        H370   1.076       .  S
C359        C360   1.351       .  D
C359        H371   1.084       .  S
C360        C361   1.491       .  S
C360        H372   1.086       .  S
C361        C362   1.405       .  A
C361        C366   1.409       .  A
C362        C363   1.396       .  A
C362        H373   1.083       .  S
C363        C364   1.404       .  A
C363        H374   1.083       .  S
C364        C365   1.407       .  A
C365        C366   1.404       .  A
C365        H375   1.083       .  S
C366        H376   1.080       .  S
C377        C378   1.426       .  A
C377        C382   1.425       .  A
C378        C379   1.402       .  A
C378        H391   1.072       .  S
C379        C380   1.396       .  A
C379        H392   1.083       .  S
C380        C381   1.400       .  A
C380        C383   1.493       .  S
C381        C382   1.396       .  A
C381        H393   1.083       .  S
C382        H394   1.074       .  S
C383        C384   1.349       .  D
C383        H395   1.084       .  S
C384        C385   1.492       .  S
C384        H396   1.086       .  S
C385        C386   1.402       .  A
C385        C390   1.412       .  A
C386        C387   1.391       .  A
C386        H397   1.084       .  S
C387        C388   1.406       .  A
C387        H398   1.083       .  S
C388        C389   1.407       .  A
C389        C390   1.409       .  A
C389        H399   1.083       .  S
C390        H400   1.081       .  S
C401        C402   1.404       .  A
C401        C406   1.407       .  A
C402        C403   1.392       .  A
C402        H415   1.083       .  S
C403        C404   1.402       .  A
C403        H416   1.084       .  S
C404        C405   1.409       .  A
C404        C407   1.486       .  S
C405        C406   1.406       .  A
C405        H417   1.081       .  S
C406        H418   1.083       .  S
C407        C408   1.349       .  D
C407        H419   1.088       .  S
C408        C409   1.488       .  S
C408        H420   1.085       .  S
C409        C410   1.395       .  A
C409        C414   1.398       .  A
C410        C411   1.388       .  A
C410        H421   1.084       .  S
C411        C412   1.428       .  A
C411        H422   1.078       .  S
C412        C413   1.427       .  A
C413        C414   1.407       .  A
C413        H423   1.068       .  S
C414        H424   1.083       .  S
C425        C426   1.427       .  A
C425        C430   1.425       .  A
C426        C427   1.389       .  A
C426        H439   1.074       .  S
C427        C428   1.393       .  A
C427        H440   1.084       .  S
C428        C429   1.404       .  A
C428        C431   1.490       .  S
C429        C430   1.408       .  A
C429        H441   1.081       .  S
C430        H442   1.073       .  S
C431        C432   1.347       .  D
C431        H443   1.088       .  S
C432        C433   1.488       .  S
C432        H444   1.084       .  S
C433        C434   1.405       .  A
C433        C438   1.406       .  A
C434        C435   1.406       .  A
C434        H445   1.083       .  S
C435        C436   1.408       .  A
C435        H446   1.083       .  S
C436        C437   1.404       .  A
C437        C438   1.394       .  A
C437        H447   1.083       .  S
C438        H448   1.083       .  S
C449        C450   1.423       .  A
C449        C454   1.426       .  A
C450        C451   1.396       .  A
C450        H463   1.071       .  S
C451        C452   1.394       .  A
C451        H464   1.084       .  S
C452        C453   1.400       .  A
C452        C455   1.487       .  S
C453        C454   1.403       .  A
C453        H465   1.083       .  S
C454        H466   1.073       .  S
C455        C456   1.345       .  D
C455        H467   1.087       .  S
C456        C457   1.487       .  S
C456        H468   1.086       .  S
C457        C458   1.404       .  A
C457        C462   1.406       .  A
C458        C459   1.404       .  A
C458        H469   1.083       .  S
C459        C460   1.405       .  A
C459        H470   1.083       .  S
C460        C461   1.405       .  A
C461        C462   1.399       .  A
C461        H471   1.083       .  S
C462        H472   1.083       .  S
C473        C474   1.404       .  A
C473        C478   1.407       .  A
C474        C475   1.391       .  A
C474        H487   1.083       .  S
C475        C476   1.403       .  A
C475        H488   1.084       .  S
C476        C477   1.410       .  A
C476        C479   1.489       .  S
C477        C478   1.407       .  A
C477        H489   1.081       .  S
C478        H490   1.083       .  S
C479        C480   1.350       .  D
C479        H491   1.086       .  S
C480        C481   1.491   1_556  S
C480        H492   1.084       .  S
C481        C482   1.398       .  A
C481        C486   1.398       .  A
C482        C483   1.403       .  A
C482        H493   1.083   1_554  S
C483        C484   1.425       .  A
C483        H494   1.072       .  S
C484        C485   1.426       .  A
C485        C486   1.392       .  A
C485        H495   1.074       .  S
C486        H496   1.083       .  S
C497        C498   1.403       .  A
C497        C502   1.404       .  A
C498        C499   1.396       .  A
C498        H511   1.084       .  S
C499        C500   1.402       .  A
C499        H512   1.084       .  S
C500        C501   1.408       .  A
C500        C503   1.484       .  S
C501        C502   1.405       .  A
C501        H513   1.083       .  S
C502        H514   1.083       .  S
C503        C504   1.347       .  D
C503        H515   1.087       .  S
C504        C505   1.487       .  S
C504        H516   1.087       .  S
C505        C506   1.395       .  A
C505        C510   1.399   1_556  A
C506        C507   1.398   1_556  A
C506        H517   1.084       .  S
C507        C508   1.427       .  A
C507        H518   1.074   1_554  S
C508        C509   1.424       .  A
C509        C510   1.399       .  A
C509        H519   1.069       .  S
C510        H520   1.083       .  S
C521        C522   1.427       .  A
C521        C526   1.426       .  A
C522        C523   1.389       .  A
C522        H535   1.077       .  S
C523        C524   1.392       .  A
C523        H536   1.084       .  S
C524        C525   1.403       .  A
C524        C527   1.488       .  S
C525        C526   1.407       .  A
C525        H537   1.081       .  S
C526        H538   1.070       .  S
C527        C528   1.347       .  D
C527        H539   1.087       .  S
C528        C529   1.489       .  S
C528        H540   1.085       .  S
C529        C530   1.403       .  A
C529        C534   1.408       .  A
C530        C531   1.403       .  A
C530        H541   1.083       .  S
C531        C532   1.408       .  A
C531        H542   1.083       .  S
C532        C533   1.404       .  A
C533        C534   1.397       .  A
C533        H543   1.083       .  S
C534        H544   1.082       .  S
C545        C546   1.407       .  A
C545        C550   1.405       .  A
C546        C547   1.407       .  A
C546        H559   1.083       .  S
C547        C548   1.406       .  A
C547        H560   1.083       .  S
C548        C549   1.405       .  A
C548        C551   1.490       .  S
C549        C550   1.393       .  A
C549        H561   1.083       .  S
C550        H562   1.083       .  S
C551        C552   1.349       .  D
C551        H563   1.084       .  S
C552        C553   1.490       .  S
C552        H564   1.087       .  S
C553        C554   1.394       .  A
C553        C558   1.402       .  A
C554        C555   1.391       .  A
C554        H565   1.084       .  S
C555        C556   1.427       .  A
C555        H566   1.078       .  S
C556        C557   1.427       .  A
C557        C558   1.406       .  A
C557        H567   1.066       .  S
C558        H568   1.081       .  S
C569        C570   1.425       .  A
C569        C574   1.428       .  A
C570        C571   1.404       .  A
C570        H583   1.068       .  S
C571        C572   1.397       .  A
C571        H584   1.083       .  S
C572        C573   1.398       .  A
C572        C575   1.493       .  S
C573        C574   1.395       .  A
C573        H585   1.083       .  S
C574        H586   1.076       .  S
C575        C576   1.351       .  D
C575        H587   1.085       .  S
C576        C577   1.491       .  S
C576        H588   1.086       .  S
C577        C578   1.404       .  A
C577        C582   1.409       .  A
C578        C579   1.395       .  A
C578        H589   1.084       .  S
C579        C580   1.404       .  A
C579        H590   1.083       .  S
C580        C581   1.408       .  A
C581        C582   1.407       .  A
C581        H591   1.083       .  S
C582        H592   1.081       .  S
C593        C594   1.427       .  A
C593        C598   1.425       .  A
C594        C595   1.399       .  A
C594        H607   1.072       .  S
C595        C596   1.394       .  A
C595        H608   1.084       .  S
C596        C597   1.398       .  A
C596        C599   1.487       .  S
C597        C598   1.401       .  A
C597        H609   1.083       .  S
C598        H610   1.072       .  S
C599        C600   1.347       .  D
C599        H611   1.086       .  S
C600        C601   1.487       .  S
C600        H612   1.087       .  S
C601        C602   1.403       .  A
C601        C606   1.407       .  A
C602        C603   1.398       .  A
C602        H613   1.083       .  S
C603        C604   1.403       .  A
C603        H614   1.083       .  S
C604        C605   1.407       .  A
C605        C606   1.406       .  A
C605        H615   1.083       .  S
C606        H616   1.083       .  S
C617        C618   1.426       .  A
C617        C622   1.426       .  A
C618        C619   1.401       .  A
C618        H631   1.072       .  S
C619        C620   1.397       .  A
C619        H632   1.083       .  S
C620        C621   1.399       .  A
C620        C623   1.491       .  S
C621        C622   1.395       .  A
C621        H633   1.082       .  S
C622        H634   1.075       .  S
C623        C624   1.349       .  D
C623        H635   1.085       .  S
C624        C625   1.489       .  S
C624        H636   1.086       .  S
C625        C626   1.403       .  A
C625        C630   1.410       .  A
C626        C627   1.394       .  A
C626        H637   1.084       .  S
C627        C628   1.405       .  A
C627        H638   1.083       .  S
C628        C629   1.407       .  A
C629        C630   1.405       .  A
C629        H639   1.083       .  S
C630        H640   1.081       .  S
C641        C642   1.423       .  A
C641        C646   1.427       .  A
C642        C643   1.401       .  A
C642        H655   1.070       .  S
C643        C644   1.397       .  A
C643        H656   1.083       .  S
C644        C645   1.397       .  A
C644        C647   1.485       .  S
C645        C646   1.395       .  A
C645        H657   1.083       .  S
C646        H658   1.073       .  S
C647        C648   1.345       .  D
C647        H659   1.087       .  S
C648        C649   1.481       .  S
C648        H660   1.086       .  S
C649        C650   1.402       .  A
C649        C654   1.406       .  A
C650        C651   1.401       .  A
C650        H661   1.083       .  S
C651        C652   1.406       .  A
C651        H662   1.083       .  S
C652        C653   1.405       .  A
C653        C654   1.400       .  A
C653        H663   1.083       .  S
C654        H664   1.083       .  S
C665        C666   1.404       .  A
C665        C670   1.409       .  A
C666        C667   1.397       .  A
C666        H679   1.083       .  S
C667        C668   1.406       .  A
C667        H680   1.084       .  S
C668        C669   1.410       .  A
C668        C671   1.496       .  S
C669        C670   1.408       .  A
C669        H681   1.081       .  S
C670        H682   1.083       .  S
C671        C672   1.355       .  D
C671        H683   1.085       .  S
C672        C673   1.499       .  S
C672        H684   1.084       .  S
C673        C674   1.402       .  A
C673        C678   1.397       .  A
C674        C675   1.409       .  A
C674        H685   1.083       .  S
C675        C676   1.425       .  A
C675        H686   1.069       .  S
C676        C677   1.429       .  A
C677        C678   1.393       .  A
C677        H687   1.077       .  S
C678        H688   1.082       .  S
C689        C690   1.407       .  A
C689        C694   1.403       .  A
C690        C691   1.405       .  A
C690        H703   1.083       .  S
C691        C692   1.409       .  A
C691        H704   1.081       .  S
C692        C693   1.403       .  A
C692        C695   1.486       .  S
C693        C694   1.393       .  A
C693        H705   1.084       .  S
C694        H706   1.083       .  S
C695        C696   1.348       .  D
C695        H707   1.087       .  S
C696        C697   1.486       .  S
C696        H708   1.085       .  S
C697        C698   1.396       .  A
C697        C702   1.396       .  A
C698        C699   1.403       .  A
C698        H709   1.083       .  S
C699        C700   1.427       .  A
C699        H710   1.068       .  S
C700        C701   1.427       .  A
C701        C702   1.392       .  A
C701        H711   1.077       .  S
C702        H712   1.083       .  S
C713        C714   1.426       .  A
C713        C718   1.426       .  A
C714        C715   1.390       .  A
C714        H727   1.074       .  S
C715        C716   1.393       .  A
C715        H728   1.084       .  S
C716        C717   1.405       .  A
C716        C719   1.492       .  S
C717        C718   1.407       .  A
C717        H729   1.081       .  S
C718        H730   1.073       .  S
C719        C720   1.347       .  D
C719        H731   1.087       .  S
C720        C721   1.489       .  S
C720        H732   1.084       .  S
C721        C722   1.403       .  A
C721        C726   1.408       .  A
C722        C723   1.403       .  A
C722        H733   1.083       .  S
C723        C724   1.408       .  A
C723        H734   1.083       .  S
C724        C725   1.405       .  A
C725        C726   1.398       .  A
C725        H735   1.083       .  S
C726        H736   1.083       .  S
C737        C738   1.405       .  A
C737        C742   1.408       .  A
C738        C739   1.390       .  A
C738        H751   1.083       .  S
C739        C740   1.401       .  A
C739        H752   1.084       .  S
C740        C741   1.411       .  A
C740        C743   1.489       .  S
C741        C742   1.410       .  A
C741        H753   1.081       .  S
C742        H754   1.083       .  S
C743        C744   1.349       .  D
C743        H755   1.086       .  S
C744        C745   1.494       .  S
C744        H756   1.085       .  S
C745        C746   1.397       .  A
C745        C750   1.399       .  A
C746        C747   1.403       .  A
C746        H757   1.083       .  S
C747        C748   1.425       .  A
C747        H758   1.069       .  S
C748        C749   1.425       .  A
C749        C750   1.394       .  A
C749        H759   1.074       .  S
C750        H760   1.082       .  S
C761        C762   1.426       .  A
C761        C766   1.426       .  A
C762        C763   1.388       .  A
C762        H775   1.076       .  S
C763        C764   1.391       .  A
C763        H776   1.084       .  S
C764        C765   1.404       .  A
C764        C767   1.488       .  S
C765        C766   1.409       .  A
C765        H777   1.082       .  S
C766        H778   1.072       .  S
C767        C768   1.346       .  D
C767        H779   1.087       .  S
C768        C769   1.489       .  S
C768        H780   1.085       .  S
C769        C770   1.402       .  A
C769        C774   1.409       .  A
C770        C771   1.402       .  A
C770        H781   1.083   1_554  S
C771        C772   1.408       .  A
C771        H782   1.083   1_554  S
C772        C773   1.404       .  A
C773        C774   1.399       .  A
C773        H783   1.083       .  S
C774        H784   1.083       .  S
C785        C786   1.405       .  A
C785        C790   1.406       .  A
C786        C787   1.395       .  A
C786        H799   1.083       .  S
C787        C788   1.403       .  A
C787        H800   1.084       .  S
C788        C789   1.410       .  A
C788        C791   1.490       .  S
C789        C790   1.404       .  A
C789        H801   1.081   1_554  S
C790        H802   1.083   1_554  S
C791        C792   1.350       .  D
C791        H803   1.086       .  S
C792        C793   1.489       .  S
C792        H804   1.084       .  S
C793        C794   1.396       .  A
C793        C798   1.399       .  A
C794        C795   1.400       .  A
C794        H805   1.084       .  S
C795        C796   1.425       .  A
C795        H806   1.071       .  S
C796        C797   1.426       .  A
C797        C798   1.396       .  A
C797        H807   1.074       .  S
C798        H808   1.083       .  S
C809        C810   1.409   1_554  A
C809        C814   1.404       .  A
C810        C811   1.404       .  A
C810        H823   1.083       .  S
C811        C812   1.403   1_556  A
C811        H824   1.083       .  S
C812        C813   1.408       .  A
C812        C815   1.489       .  S
C813        C814   1.397       .  A
C813        H825   1.083       .  S
C814        H826   1.083       .  S
C815        C816   1.346       .  D
C815        H827   1.085       .  S
C816        C817   1.488       .  S
C816        H828   1.088       .  S
C817        C818   1.392       .  A
C817        C822   1.404       .  A
C818        C819   1.387       .  A
C818        H829   1.084       .  S
C819        C820   1.427       .  A
C819        H830   1.079       .  S
C820        C821   1.427       .  A
C821        C822   1.410       .  A
C821        H831   1.070       .  S
C822        H832   1.082       .  S
C833        C834   1.421       .  A
C833        C838   1.426       .  A
C834        C835   1.397       .  A
C834        H847   1.067       .  S
C835        C836   1.394       .  A
C835        H848   1.084       .  S
C836        C837   1.398       .  A
C836        C839   1.484       .  S
C837        C838   1.401       .  A
C837        H849   1.083       .  S
C838        H850   1.070       .  S
C839        C840   1.346       .  D
C839        H851   1.087       .  S
C840        C841   1.485       .  S
C840        H852   1.086       .  S
C841        C842   1.405   1_554  A
C841        C846   1.405       .  A
C842        C843   1.405       .  A
C842        H853   1.083       .  S
C843        C844   1.405   1_556  A
C843        H854   1.083       .  S
C844        C845   1.405       .  A
C845        C846   1.395       .  A
C845        H855   1.083       .  S
C846        H856   1.083       .  S
C857        C858   1.408       .  A
C857        C862   1.404       .  A
C858        C859   1.407       .  A
C858        H871   1.083       .  S
C859        C860   1.405       .  A
C859        H872   1.083       .  S
C860        C861   1.408       .  A
C860        C863   1.494       .  S
C861        C862   1.396       .  A
C861        H873   1.082       .  S
C862        H874   1.083       .  S
C863        C864   1.348       .  D
C863        H875   1.085       .  S
C864        C865   1.490       .  S
C864        H876   1.087       .  S
C865        C866   1.392       .  A
C865        C870   1.405       .  A
C866        C867   1.387       .  A
C866        H877   1.084       .  S
C867        C868   1.426       .  A
C867        H878   1.078       .  S
C868        C869   1.427       .  A
C869        C870   1.412       .  A
C869        H879   1.069       .  S
C870        H880   1.082       .  S
C881        C882   1.424       .  A
C881        C886   1.429       .  A
C882        C883   1.401       .  A
C882        H895   1.068       .  S
C883        C884   1.396       .  A
C883        H896   1.084       .  S
C884        C885   1.397       .  A
C884        C887   1.487       .  S
C885        C886   1.398       .  A
C885        H897   1.083       .  S
C886        H898   1.075       .  S
C887        C888   1.347       .  D
C887        H899   1.087       .  S
C888        C889   1.486       .  S
C888        H900   1.086       .  S
C889        C890   1.405       .  A
C889        C894   1.406       .  A
C890        C891   1.404       .  A
C890        H901   1.083       .  S
C891        C892   1.404       .  A
C891        H902   1.083       .  S
C892        C893   1.403       .  A
C893        C894   1.398       .  A
C893        H903   1.083       .  S
C894        H904   1.083       .  S
C905        C906   1.407       .  A
C905        C910   1.405       .  A
C906        C907   1.403       .  A
C906        H919   1.083       .  S
C907        C908   1.404       .  A
C907        H920   1.083       .  S
C908        C909   1.408       .  A
C908        C911   1.489       .  S
C909        C910   1.397       .  A
C909        H921   1.082       .  S
C910        H922   1.083       .  S
C911        C912   1.347       .  D
C911        H923   1.084       .  S
C912        C913   1.491       .  S
C912        H924   1.087       .  S
C913        C914   1.394       .  A
C913        C918   1.404       .  A
C914        C915   1.391       .  A
C914        H925   1.084       .  S
C915        C916   1.425       .  A
C915        H926   1.074       .  S
C916        C917   1.425       .  A
C917        C918   1.405       .  A
C917        H927   1.072       .  S
C918        H928   1.081       .  S
C929        C930   1.425       .  A
C929        C934   1.428       .  A
C930        C931   1.407       .  A
C930        H943   1.075       .  S
C931        C932   1.400       .  A
C931        H944   1.083       .  S
C932        C933   1.398       .  A
C932        C935   1.496       .  S
C933        C934   1.396       .  A
C933        H945   1.083       .  S
C934        H946   1.076       .  S
C935        C936   1.351       .  D
C935        H947   1.085       .  S
C936        C937   1.492       .  S
C936        H948   1.087       .  S
C937        C938   1.403       .  A
C937        C942   1.409       .  A
C938        C939   1.396       .  A
C938        H949   1.084       .  S
C939        C940   1.406       .  A
C939        H950   1.083       .  S
C940        C941   1.409       .  A
C941        C942   1.410       .  A
C941        H951   1.083       .  S
C942        H952   1.082       .  S
C953        C954   1.404       .  A
C953        C958   1.408       .  A
C954        C955   1.392       .  A
C954        H967   1.083       .  S
C955        C956   1.402       .  A
C955        H968   1.084       .  S
C956        C957   1.409       .  A
C956        C959   1.488       .  S
C957        C958   1.408       .  A
C957        H969   1.082       .  S
C958        H970   1.083       .  S
C959        C960   1.349       .  D
C959        H971   1.087       .  S
C960        C961   1.491       .  S
C960        H972   1.085       .  S
C961        C962   1.397       .  A
C961        C966   1.398       .  A
C962        C963   1.404       .  A
C962        H973   1.083       .  S
C963        C964   1.425       .  A
C963        H974   1.069       .  S
C964        C965   1.426       .  A
C965        C966   1.394       .  A
C965        H975   1.072       .  S
C966        H976   1.083       .  S
C977        C978   1.408       .  A
C977        C982   1.405       .  A
C978        C979   1.407       .  A
C978        H991   1.083       .  S
C979        C980   1.410       .  A
C979        H992   1.081       .  S
C980        C981   1.403       .  A
C980        C983   1.490       .  S
C981        C982   1.395       .  A
C981        H993   1.084       .  S
C982        H994   1.083       .  S
C983        C984   1.349       .  D
C983        H995   1.086       .  S
C984        C985   1.492       .  S
C984        H996   1.085       .  S
C985        C986   1.395       .  A
C985        C990   1.399       .  A
C986        C987   1.400       .  A
C986        H997   1.083       .  S
C987        C988   1.422       .  A
C987        H998   1.069       .  S
C988        C989   1.428       .  A
C989        C990   1.398       .  A
C989        H999   1.073       .  S
C990       H1000   1.083       .  S
C1001      C1002   1.427       .  A
C1001      C1006   1.426       .  A
C1002      C1003   1.391       .  A
C1002      H1015   1.074       .  S
C1003      C1004   1.393       .  A
C1003      H1016   1.084       .  S
C1004      C1005   1.405       .  A
C1004      C1007   1.493       .  S
C1005      C1006   1.408       .  A
C1005      H1017   1.081       .  S
C1006      H1018   1.074       .  S
C1007      C1008   1.348       .  D
C1007      H1019   1.087       .  S
C1008      C1009   1.491       .  S
C1008      H1020   1.084       .  S
C1009      C1010   1.405       .  A
C1009      C1014   1.407       .  A
C1010      C1011   1.405       .  A
C1010      H1021   1.083       .  S
C1011      C1012   1.407       .  A
C1011      H1022   1.083       .  S
C1012      C1013   1.405       .  A
C1013      C1014   1.397       .  A
C1013      H1023   1.083       .  S
C1014      H1024   1.083       .  S
C1025      C1026   1.404       .  A
C1025      C1030   1.407       .  A
C1026      C1027   1.392       .  A
C1026      H1039   1.083       .  S
C1027      C1028   1.401       .  A
C1027      H1040   1.084       .  S
C1028      C1029   1.408       .  A
C1028      C1031   1.484       .  S
C1029      C1030   1.408       .  A
C1029      H1041   1.082       .  S
C1030      H1042   1.083       .  S
C1031      C1032   1.348       .  D
C1031      H1043   1.086       .  S
C1032      C1033   1.492       .  S
C1032      H1044   1.086       .  S
C1033      C1034   1.401       .  A
C1033      C1038   1.399       .  A
C1034      C1035   1.408       .  A
C1034      H1045   1.083       .  S
C1035      C1036   1.423       .  A
C1035      H1046   1.069       .  S
C1036      C1037   1.425       .  A
C1037      C1038   1.389       .  A
C1037      H1047   1.081       .  S
C1038      H1048   1.082       .  S
C1049      C1050   1.405       .  A
C1049      C1054   1.407       .  A
C1050      C1051   1.390       .  A
C1050      H1063   1.083       .  S
C1051      C1052   1.401       .  A
C1051      H1064   1.084       .  S
C1052      C1053   1.410       .  A
C1052      C1055   1.488       .  S
C1053      C1054   1.409       .  A
C1053      H1065   1.081       .  S
C1054      H1066   1.083       .  S
C1055      C1056   1.348       .  D
C1055      H1067   1.087       .  S
C1056      C1057   1.489       .  S
C1056      H1068   1.085       .  S
C1057      C1058   1.395       .  A
C1057      C1062   1.398       .  A
C1058      C1059   1.402       .  A
C1058      H1069   1.083       .  S
C1059      C1060   1.426       .  A
C1059      H1070   1.069       .  S
C1060      C1061   1.426       .  A
C1061      C1062   1.394       .  A
C1061      H1071   1.074       .  S
C1062      H1072   1.083       .  S
C1073      C1074   1.425       .  A
C1073      C1078   1.427       .  A
C1074      C1075   1.389       .  A
C1074      H1087   1.074       .  S
C1075      C1076   1.393       .  A
C1075      H1088   1.084       .  S
C1076      C1077   1.404       .  A
C1076      C1079   1.489       .  S
C1077      C1078   1.407       .  A
C1077      H1089   1.081       .  S
C1078      H1090   1.075       .  S
C1079      C1080   1.346       .  D
C1079      H1091   1.088       .  S
C1080      C1081   1.488       .  S
C1080      H1092   1.084       .  S
C1081      C1082   1.403       .  A
C1081      C1086   1.407       .  A
C1082      C1083   1.404       .  A
C1082      H1093   1.083       .  S
C1083      C1084   1.408       .  A
C1083      H1094   1.083       .  S
C1084      C1085   1.403       .  A
C1085      C1086   1.395       .  A
C1085      H1095   1.083       .  S
C1086      H1096   1.083       .  S
C1097      C1098   1.425       .  A
C1097      C1102   1.428       .  A
C1098      C1099   1.402       .  A
C1098      H1111   1.067       .  S
C1099      C1100   1.397       .  A
C1099      H1112   1.083       .  S
C1100      C1101   1.397       .  A
C1100      C1103   1.489       .  S
C1101      C1102   1.392       .  A
C1101      H1113   1.083       .  S
C1102      H1114   1.075       .  S
C1103      C1104   1.351       .  D
C1103      H1115   1.083       .  S
C1104      C1105   1.491       .  S
C1104      H1116   1.086       .  S
C1105      C1106   1.405       .  A
C1105      C1110   1.409       .  A
C1106      C1107   1.396       .  A
C1106      H1117   1.084       .  S
C1107      C1108   1.403       .  A
C1107      H1118   1.083       .  S
C1108      C1109   1.406       .  A
C1109      C1110   1.402       .  A
C1109      H1119   1.083       .  S
C1110      H1120   1.080       .  S
C1121      C1122   1.404       .  A
C1121      C1126   1.407       .  A
C1122      C1123   1.389       .  A
C1122      H1135   1.083       .  S
C1123      C1124   1.401       .  A
C1123      H1136   1.084       .  S
C1124      C1125   1.411       .  A
C1124      C1127   1.487       .  S
C1125      C1126   1.408       .  A
C1125      H1137   1.081       .  S
C1126      H1138   1.083       .  S
C1127      C1128   1.348       .  D
C1127      H1139   1.085       .  S
C1128      C1129   1.493       .  S
C1128      H1140   1.085       .  S
C1129      C1130   1.397       .  A
C1129      C1134   1.401       .  A
C1130      C1131   1.401       .  A
C1130      H1141   1.083       .  S
C1131      C1132   1.424       .  A
C1131      H1142   1.070       .  S
C1132      C1133   1.423       .  A
C1133      C1134   1.395       .  A
C1133      H1143   1.071       .  S
C1134      H1144   1.082       .  S
C1145      C1146   1.428       .  A
C1145      C1150   1.428       .  A
C1146      C1147   1.405       .  A
C1146      H1159   1.067       .  S
C1147      C1148   1.397       .  A
C1147      H1160   1.083       .  S
C1148      C1149   1.397       .  A
C1148      C1151   1.492       .  S
C1149      C1150   1.394       .  A
C1149      H1161   1.083       .  S
C1150      H1162   1.077       .  S
C1151      C1152   1.349       .  D
C1151      H1163   1.085       .  S
C1152      C1153   1.489       .  S
C1152      H1164   1.087       .  S
C1153      C1154   1.402       .  A
C1153      C1158   1.409       .  A
C1154      C1155   1.393       .  A
C1154      H1165   1.084       .  S
C1155      C1156   1.405       .  A
C1155      H1166   1.083       .  S
C1156      C1157   1.408       .  A
C1157      C1158   1.408       .  A
C1157      H1167   1.083       .  S
C1158      H1168   1.082       .  S
C1169      C1170   1.408       .  A
C1169      C1174   1.405       .  A
C1170      C1171   1.405       .  A
C1170      H1183   1.083       .  S
C1171      C1172   1.404       .  A
C1171      H1184   1.083       .  S
C1172      C1173   1.407       .  A
C1172      C1175   1.492       .  S
C1173      C1174   1.397       .  A
C1173      H1185   1.083       .  S
C1174      H1186   1.083       .  S
C1175      C1176   1.347       .  D
C1175      H1187   1.085       .  S
C1176      C1177   1.491       .  S
C1176      H1188   1.087       .  S
C1177      C1178   1.392       .  A
C1177      C1182   1.405       .  A
C1178      C1179   1.388       .  A
C1178      H1189   1.084       .  S
C1179      C1180   1.427       .  A
C1179      H1190   1.076       .  S
C1180      C1181   1.426       .  A
C1181      C1182   1.411       .  A
C1181      H1191   1.070       .  S
C1182      H1192   1.081       .  S
C1193      C1194   1.404       .  A
C1193      C1198   1.407       .  A
C1194      C1195   1.392       .  A
C1194      H1207   1.083       .  S
C1195      C1196   1.403       .  A
C1195      H1208   1.084       .  S
C1196      C1197   1.410       .  A
C1196      C1199   1.490       .  S
C1197      C1198   1.408       .  A
C1197      H1209   1.081       .  S
C1198      H1210   1.083       .  S
C1199      C1200   1.351       .  D
C1199      H1211   1.085       .  S
C1200      C1201   1.494       .  S
C1200      H1212   1.084       .  S
C1201      C1202   1.399       .  A
C1201      C1206   1.399       .  A
C1202      C1203   1.404       .  A
C1202      H1213   1.083       .  S
C1203      C1204   1.427       .  A
C1203      H1214   1.073       .  S
C1204      C1205   1.426       .  A
C1205      C1206   1.393       .  A
C1205      H1215   1.074       .  S
C1206      H1216   1.082       .  S
C1217      C1218   1.428       .  A
C1217      C1222   1.426       .  A
C1218      C1219   1.391       .  A
C1218      H1231   1.075       .  S
C1219      C1220   1.396       .  A
C1219      H1232   1.083       .  S
C1220      C1221   1.399       .  A
C1220      C1223   1.492       .  S
C1221      C1222   1.406       .  A
C1221      H1233   1.083       .  S
C1222      H1234   1.069       .  S
C1223      C1224   1.351       .  D
C1223      H1235   1.085       .  S
C1224      C1225   1.488       .  S
C1224      H1236   1.086       .  S
C1225      C1226   1.403       .  A
C1225      C1230   1.408       .  A
C1226      C1227   1.394       .  A
C1226      H1237   1.084       .  S
C1227      C1228   1.404       .  A
C1227      H1238   1.083       .  S
C1228      C1229   1.408       .  A
C1229      C1230   1.406       .  A
C1229      H1239   1.083       .  S
C1230      H1240   1.082       .  S
C1241      C1242   1.408       .  A
C1241      C1246   1.405       .  A
C1242      C1243   1.407       .  A
C1242      H1255   1.083       .  S
C1243      C1244   1.405       .  A
C1243      H1256   1.083       .  S
C1244      C1245   1.405       .  A
C1244      C1247   1.489       .  S
C1245      C1246   1.394       .  A
C1245      H1257   1.083       .  S
C1246      H1258   1.083       .  S
C1247      C1248   1.348       .  D
C1247      H1259   1.084       .  S
C1248      C1249   1.491       .  S
C1248      H1260   1.088       .  S
C1249      C1250   1.395       .  A
C1249      C1254   1.403       .  A
C1250      C1251   1.391       .  A
C1250      H1261   1.084       .  S
C1251      C1252   1.425       .  A
C1251      H1262   1.074       .  S
C1252      C1253   1.427       .  A
C1253      C1254   1.407       .  A
C1253      H1263   1.070       .  S
C1254      H1264   1.081       .  S
C1265      C1266   1.407       .  A
C1265      C1270   1.404       .  A
C1266      C1267   1.402       .  A
C1266      H1279   1.083       .  S
C1267      C1268   1.403       .  A
C1267      H1280   1.083       .  S
C1268      C1269   1.408       .  A
C1268      C1271   1.489       .  S
C1269      C1270   1.397       .  A
C1269      H1281   1.082       .  S
C1270      H1282   1.083       .  S
C1271      C1272   1.347       .  D
C1271      H1283   1.084       .  S
C1272      C1273   1.489       .  S
C1272      H1284   1.087       .  S
C1273      C1274   1.392       .  A
C1273      C1278   1.404       .  A
C1274      C1275   1.390       .  A
C1274      H1285   1.084       .  S
C1275      C1276   1.427       .  A
C1275      H1286   1.077       .  S
C1276      C1277   1.426       .  A
C1277      C1278   1.407       .  A
C1277      H1287   1.070       .  S
C1278      H1288   1.081       .  S
C1289      C1290   1.405       .  A
C1289      C1294   1.408       .  A
C1290      C1291   1.393       .  A
C1290      H1303   1.083       .  S
C1291      C1292   1.403       .  A
C1291      H1304   1.084       .  S
C1292      C1293   1.409       .  A
C1292      C1295   1.489       .  S
C1293      C1294   1.408       .  A
C1293      H1305   1.082       .  S
C1294      H1306   1.083       .  S
C1295      C1296   1.350       .  D
C1295      H1307   1.086       .  S
C1296      C1297   1.493       .  S
C1296      H1308   1.085       .  S
C1297      C1298   1.399       .  A
C1297      C1302   1.400       .  A
C1298      C1299   1.403       .  A
C1298      H1309   1.083       .  S
C1299      C1300   1.425       .  A
C1299      H1310   1.076       .  S
C1300      C1301   1.423       .  A
C1301      C1302   1.394       .  A
C1301      H1311   1.075       .  S
C1302      H1312   1.083       .  S
C1313      C1314   1.424       .  A
C1313      C1318   1.427       .  A
C1314      C1315   1.393       .  A
C1314      H1327   1.074       .  S
C1315      C1316   1.396       .  A
C1315      H1328   1.084       .  S
C1316      C1317   1.403       .  A
C1316      C1319   1.491       .  S
C1317      C1318   1.404       .  A
C1317      H1329   1.081       .  S
C1318      H1330   1.073       .  S
C1319      C1320   1.348       .  D
C1319      H1331   1.088       .  S
C1320      C1321   1.487       .  S
C1320      H1332   1.084       .  S
C1321      C1322   1.403       .  A
C1321      C1326   1.406       .  A
C1322      C1323   1.404       .  A
C1322      H1333   1.083       .  S
C1323      C1324   1.408       .  A
C1323      H1334   1.083       .  S
C1324      C1325   1.404       .  A
C1325      C1326   1.396       .  A
C1325      H1335   1.083       .  S
C1326      H1336   1.083       .  S
