geometry optimzed in LAMMPS
_audit_creation_date              2020-11-30 
_audit_creation_method            'lammps2cif' 
_symmetry_space_group_name_H-M    'P1' 
_symmetry_Int_Tables_number       1 
_symmetry_cell_setting            triclinic 
loop_ 
_symmetry_equiv_pos_as_xyz 
  x,y,z 
_cell_length_a                    29.960139181298658 
_cell_length_b                    29.837147667047823 
_cell_length_c                    30.652090440002585 
_cell_angle_alpha                 90.15173852910156 
_cell_angle_beta                  90.07769758254358 
_cell_angle_gamma                 89.69466731397442 
loop_ 
_atom_site_label 
_atom_site_type_symbol 
_atom_site_fract_x 
_atom_site_fract_y 
_atom_site_fract_z 
_atom_site_charge 
C1          C  0.36123829  0.64130720  0.63559191    -0.01270
C2          C  0.39927041  0.60706636  0.39915049     0.43680
N3          N  0.44699936  0.58817120  0.45001889     0.02570
C4          C  0.57573910  0.39167926  0.44832669    -0.05310
H5          H  0.40485942  0.36611344  0.47104133     0.08060
C6          C  0.40595918  0.45600068  0.61238885    -0.05660
Co7        Co  0.49493082  0.50292626  0.42542136     0.74180
N8          N  0.44490801  0.42296828  0.45761864    -0.24840
Co9        Co  0.49279812  0.42451483  0.50801458     0.74070
C10         C  0.39117550  0.40975001  0.60519091     0.43780
N11         N  0.44072066  0.56212701  0.58263707     0.02180
N12         N  0.44237417  0.42751869  0.55740708     0.02290
N13         N  0.57654311  0.44673246  0.39926653    -0.45690
H14         H  0.40395005  0.53476707  0.37054576     0.08050
N15         N  0.44728198  0.45088632  0.42452441     0.02570
N16         N  0.54093540  0.42861521  0.55700044     0.02310
C17         C  0.59381431  0.41035511  0.60213556     0.43920
N18         N  0.44205245  0.59143738  0.55062611    -0.24290
C19         C  0.57402085  0.56367798  0.39509117    -0.05210
N20         N  0.42097884  0.62143272  0.43582535    -0.45400
N21         N  0.57341596  0.39913159  0.56429723    -0.45620
C22         C  0.59703645  0.60450925  0.41038758     0.43690
N23         N  0.54519768  0.45392565  0.42899526     0.02560
N24         N  0.54127364  0.58800039  0.55366252    -0.24320
N25         N  0.44511926  0.55284608  0.42411732    -0.24810
N26         N  0.53580602  0.56143760  0.58714810     0.02200
H27         H  0.59062849  0.63610668  0.53870511     0.08090
H28         H  0.57363677  0.46840428  0.64814006     0.08130
N29         N  0.54375435  0.42226765  0.45878695    -0.24860
N30         N  0.43910932  0.46248096  0.58357090    -0.24470
N31         N  0.54444300  0.58565560  0.45551391     0.02570
C32         C  0.39952793  0.40027721  0.40273518     0.43960
C33         C  0.41086063  0.62285871  0.55910352    -0.05720
N34         N  0.53795355  0.45963125  0.58766617    -0.24470
H35         H  0.39854000  0.47862429  0.63889191     0.08110
N36         N  0.42140261  0.43837224  0.39133144    -0.45690
H37         H  0.40439863  0.65015650  0.53706847     0.08100
C38         C  0.58832441  0.60680240  0.60976267     0.43800
C39         C  0.41327685  0.55973808  0.39413070    -0.05220
Co40       Co  0.49373855  0.58905426  0.50227467     0.73820
N41         N  0.41206349  0.57343042  0.61387647    -0.45410
C42         C  0.59787051  0.40767552  0.40750250     0.44060
N43         N  0.57522914  0.61650527  0.44746762    -0.45400
Co44       Co  0.48823800  0.51111720  0.58573154     0.73890
C45         C  0.56892146  0.44994084  0.61812822    -0.05730
C46         C  0.41373320  0.39220892  0.44854452    -0.05290
N47         N  0.54326854  0.55404187  0.42542085    -0.24820
N48         N  0.41503821  0.39510730  0.56985611    -0.45580
H49         H  0.58161298  0.36097619  0.46605647     0.08070
C50         C  0.57653397  0.61407183  0.56267543    -0.05700
Cl51       Cl  0.49222415  0.50694618  0.50525969    -0.48700
C52         C  0.39210020  0.61280209  0.60336038     0.43830
H53         H  0.57937888  0.54444781  0.36574185     0.08040
N54         N  0.56146146  0.57247925  0.62052732    -0.45410
C55         C  0.62488974  0.37896230  0.62861512    -0.01270
C56         C  0.36957599  0.37088844  0.37141047    -0.01270
C57         C  0.62972902  0.63466279  0.38437698    -0.01270
C58         C  0.37168698  0.63864949  0.36785901    -0.01270
C59         C  0.62823211  0.38100458  0.37381697    -0.01270
C60         C  0.36472666  0.37797668  0.63610914    -0.01270
C61         C  0.62107189  0.63288638  0.64194337    -0.01270
C62         C  0.23626591  0.27308332  0.00470561     0.01780
C63         C  0.27509055  0.24750965  0.00560246     0.01780
C64         C  0.23352160  0.00584353  0.27590009     0.01780
C65         C  0.26445297  0.00610435  0.24269485     0.01780
C66         C  0.99616173  0.23632779  0.27565881     0.01780
C67         C  0.99684482  0.27161677  0.24640790     0.01780
C68         C  0.50698746  0.28254959  0.25999233     0.01460
C69         C  0.50395822  0.24174234  0.23780322     0.01780
C70         C  0.24096572  0.23372313  0.50147438     0.01780
C71         C  0.27298491  0.26668608  0.50330665     0.01780
C72         C  0.23595950  0.50499605  0.23676595     0.01780
C73         C  0.26661794  0.50573946  0.27035517     0.01780
C74         C  0.26305741  0.77927907  0.01188957     0.01780
C75         C  0.23140992  0.74578916  0.01117175     0.01780
C76         C  0.77224658  0.27181871  0.00658831     0.01780
C77         C  0.73711178  0.24135682  0.00785573     0.01780
C78         C  0.00082437  0.23623661  0.74055824     0.01780
C79         C  0.00336314  0.26787653  0.77331928     0.01780
C80         C  0.72545422  0.51003905  0.26460027     0.01780
C81         C  0.75985889  0.51028347  0.23414996     0.01780
C82         C  0.24724733  0.51013855  0.72522642     0.01780
C83         C  0.22168308  0.50590124  0.76254010     0.01780
C84         C  0.87302509  0.63198155  0.87199237    -0.01270
C85         C  0.91300305  0.39923867  0.90207191     0.43680
N86         N  0.95535592  0.45068601  0.93023046     0.02570
C87         C  0.07780748  0.44594274  0.12629440    -0.05310
H88         H  0.92104195  0.47045735  0.14744140     0.08060
C89         C  0.91614031  0.61888974  0.05705518    -0.05660
Co90       Co  0.00665784  0.42116674  0.01083584     0.74180
N91         N  0.95555600  0.45656384  0.08886428    -0.24840
Co92       Co  0.00061927  0.50973323  0.08817840     0.74070
C93         C  0.89727977  0.61008659  0.10050636     0.43780
N94         N  0.95004500  0.58317135  0.95301269     0.02180
N95         N  0.94946266  0.56056332  0.08412337     0.02290
N96         N  0.08276546  0.39429724  0.07401525    -0.45690
H97         H  0.93842307  0.34830232  0.95374486     0.08050
N98         N  0.95567309  0.42287233  0.06073707     0.02570
N99         N  0.04615735  0.56316757  0.08656799     0.02310
C100        C  0.09401790  0.61362364  0.10919068     0.43920
N101        N  0.95414455  0.55145955  0.92335136    -0.24290
C102        C  0.08732207  0.38928728  0.95056609    -0.05210
N103        N  0.92649232  0.44214550  0.89854589    -0.45400
N104        N  0.07214006  0.57546635  0.11934647    -0.45620
C105        C  0.10367893  0.40117599  0.90627830     0.43690
N106        N  0.05409652  0.42635097  0.06256681     0.02560
N107        N  0.05064347  0.55264545  0.92564951    -0.24320
N108        N  0.96051332  0.41691009  0.95763339    -0.24810
N109        N  0.04877686  0.58586217  0.95410264     0.02200
H110        H  0.08450995  0.54577675  0.86425803     0.08090
H111        H  0.08009914  0.65557627  0.04686871     0.08130
N112        N  0.05085037  0.45809624  0.09263354    -0.24860
N113        N  0.94875890  0.58842137  0.05078161    -0.24470
N114        N  0.05279432  0.44931975  0.92895161     0.02570
C115        C  0.90590273  0.40464073  0.11040827     0.43960
C116        C  0.92618188  0.56097983  0.89041879    -0.05720
N117        N  0.04624720  0.59262524  0.05455423    -0.24470
H118        H  0.90824160  0.64561344  0.03468052     0.08110
N119        N  0.92671896  0.39107693  0.07266310    -0.45690
H120        H  0.92407356  0.54192789  0.86050350     0.08100
C121        C  0.10120961  0.60592774  0.90847438     0.43800
C122        C  0.93767556  0.38193997  0.94083420    -0.05220
Co123      Co  0.00327882  0.50101949  0.92716112     0.73820
N124        N  0.91882839  0.61334080  0.94241342    -0.45410
C125        C  0.09957888  0.40260072  0.11445182     0.44060
N126        N  0.07813827  0.43729366  0.89540273    -0.45400
Co127      Co  0.99861479  0.58772431  0.00295613     0.73890
C128        C  0.07506482  0.62559442  0.06578572    -0.05730
C129        C  0.92700149  0.44760386  0.12086333    -0.05290
N130        N  0.05613731  0.42054131  0.96149627    -0.24820
N131        N  0.92004505  0.57295918  0.11454900    -0.45580
H132        H  0.08100126  0.46501557  0.15593280     0.08070
C133        C  0.08093908  0.56318395  0.89498051    -0.05700
Cl134      Cl  0.00271217  0.50467354  0.00754890    -0.48700
C135        C  0.90050207  0.60126544  0.90348245     0.43830
H136        H  0.09431020  0.35917662  0.96899225     0.08040
N137        N  0.07652593  0.61868935  0.94377556    -0.45410
C138        C  0.87075188  0.37760926  0.13810453    -0.01270
C139        C  0.13475451  0.37332216  0.87365196    -0.01270
C140        C  0.13459785  0.63639783  0.88225380    -0.01270
C141        C  0.87552065  0.37694818  0.87395847    -0.01270
C142        C  0.86452329  0.64096042  0.12798273    -0.01270
C143        C  0.73618453  0.50124388  0.73476817     0.01780
C144        C  0.76978465  0.50419565  0.76590597     0.01780
C145        C  0.12923917  0.63860303  0.13931298    -0.01270
C146        C  0.13033484  0.36909109  0.14215812    -0.01270
C147        C  0.23218072  0.01589877  0.73587277     0.01780
C148        C  0.26215873  0.01506001  0.76973545     0.01780
C149        C  0.51200921  0.77321588  0.23885488     0.01780
C150        C  0.50602674  0.73927202  0.26934478     0.01780
C151        C  0.49787316  0.26927574  0.73159599     0.01780
C152        C  0.49709788  0.23630243  0.76279352     0.01780
C153        C  0.63041739  0.14217663  0.87460970    -0.01270
C154        C  0.39512470  0.11398165  0.90797602     0.43680
N155        N  0.44212515  0.06298303  0.93043307     0.02570
C156        C  0.44317771  0.93589026  0.11905967    -0.05310
H157        H  0.46467107  0.09652691  0.14735206     0.08060
C158        C  0.61864667  0.07786030  0.06656929    -0.05660
Co159      Co  0.41244829  0.01180387  0.01028154     0.74180
N160        N  0.45021416  0.06101634  0.08866659    -0.24840
Co161      Co  0.50071813  0.01172747  0.08582094     0.74070
C162        C  0.60808854  0.09979044  0.10899063     0.43780
N163        N  0.57606153  0.06222473  0.95268744     0.02180
N164        N  0.55199834  0.05982898  0.08440263     0.02290
N165        N  0.38646168  0.93278483  0.07204552    -0.45690
H166        H  0.34806320  0.09813474  0.96581809     0.08050
N167        N  0.41580989  0.06056365  0.06163272     0.02570
N168        N  0.55015065  0.95968034  0.08211323     0.02310
C169        C  0.59835709  0.90617803  0.09946940     0.43920
N170        N  0.54349512  0.06164350  0.92357035    -0.24290
C171        C  0.38046997  0.92987239  0.95106662    -0.05210
N172        N  0.43445651  0.09344337  0.89992961    -0.45400
N173        N  0.56028585  0.92831544  0.11175810    -0.45620
C174        C  0.39092764  0.91155237  0.90697603     0.43690
N175        N  0.41661284  0.96279810  0.05963718     0.02560
N176        N  0.54011690  0.96298807  0.92470856    -0.24320
N177        N  0.41039052  0.06170276  0.96025200    -0.24810
N178        N  0.57507363  0.96447461  0.95081384     0.02200
H179        H  0.52507324  0.92416413  0.86734267     0.08090
H180        H  0.63667511  0.92180649  0.03504001     0.08130
N181        N  0.45009364  0.96481186  0.08722890    -0.24860
N182        N  0.58235155  0.05604894  0.05365717    -0.24470
N183        N  0.43974211  0.96274545  0.92771997     0.02570
C184        C  0.39561830  0.10703436  0.11388531     0.43960
C185        C  0.55378560  0.09146871  0.89187268    -0.05720
N186        N  0.57900598  0.96014796  0.04974639    -0.24470
H187        H  0.64837542  0.07799045  0.04719641     0.08110
N188        N  0.38314437  0.08744701  0.07546731    -0.45690
H189        H  0.53338956  0.09721707  0.86348777     0.08100
C190        C  0.59274217  0.91531887  0.90219772     0.43800
C191        C  0.37922751  0.09259990  0.94887745    -0.05220
Co192      Co  0.49111779  0.01265653  0.92633480     0.73820
N193        N  0.60832975  0.09081104  0.94170428    -0.45410
C194        C  0.40008198  0.91379668  0.11044794     0.44060
N195        N  0.42938479  0.93332924  0.89626478    -0.45400
Co196      Co  0.57826238  0.01098496  0.00161935     0.73890
C197        C  0.60943700  0.92795113  0.05709417    -0.05730
C198        C  0.44179400  0.09054751  0.12088656    -0.05290
N199        N  0.41059642  0.96224468  0.95991535    -0.24820
N200        N  0.56537985  0.08631491  0.11703758    -0.45580
H201        H  0.46702249  0.93209329  0.14486725     0.08070
C202        C  0.54688190  0.93104608  0.89471840    -0.05700
Cl203      Cl  0.49550604  0.01235693  0.00603348    -0.48700
C204        C  0.59826561  0.11052940  0.90265796     0.43830
H205        H  0.35345103  0.92103646  0.97251013     0.08040
N206        N  0.60776849  0.93745459  0.93785709    -0.45410
C207        C  0.63117892  0.87648926  0.12922774    -0.01270
C208        C  0.36058238  0.88067379  0.87579869    -0.01270
C209        C  0.36668286  0.13933542  0.87299375    -0.01270
C210        C  0.62131133  0.88531794  0.87261682    -0.01270
C211        C  0.37307400  0.87882162  0.13912760    -0.01270
C212        C  0.49286722  0.73811634  0.74539426     0.01780
C213        C  0.49336462  0.77169699  0.77653692     0.01780
C214        C  0.36528600  0.13962645  0.14224018    -0.01270
C215        C  0.63726735  0.13300502  0.13806663    -0.01270
C216        C  0.99426227  0.73795416  0.23969524     0.01780
C217        C  0.99039383  0.76847495  0.27357785     0.01780
C218        C  0.73233743  0.99583734  0.24328286     0.01780
C219        C  0.76320422  0.99549212  0.27596207     0.01780
C220        C  0.73492103  0.27622541  0.50199852     0.01780
C221        C  0.77069232  0.24674087  0.50687567     0.01780
C222        C  0.23404626  0.77278435  0.49762049     0.01780
C223        C  0.26647281  0.73984072  0.49857151     0.01780
C224        C  0.86296587  0.13261632  0.37673876    -0.01270
C225        C  0.89395933  0.10337586  0.40778514     0.43680
N226        N  0.94269154  0.05242330  0.42816499     0.02570
C227        C  0.94301044  0.92905600  0.62311087    -0.05310
H228        H  0.96843353  0.09564420  0.64318522     0.08060
C229        C  0.11550929  0.08102075  0.56051680    -0.05660
Co230      Co  0.91601718  0.00529265  0.51122421     0.74180
N231        N  0.95290974  0.05609103  0.58735460    -0.24840
Co232      Co  0.00251874  0.00599736  0.58622877     0.74070
C233        C  0.09998135  0.10569302  0.59930120     0.43780
N234        N  0.07509996  0.05363852  0.45442766     0.02180
N235        N  0.05198511  0.05499966  0.58127407     0.02290
N236        N  0.88696955  0.92751820  0.57441907    -0.45690
H237        H  0.85753295  0.09635274  0.47395454     0.08050
N238        N  0.92004092  0.05673730  0.55883399     0.02570
N239        N  0.05305264  0.95514237  0.58375737     0.02310
C240        C  0.10292894  0.90516715  0.60422361     0.43920
N241        N  0.04308587  0.05283046  0.42482821    -0.24290
C242        C  0.88507101  0.92138277  0.45587298    -0.05210
N243        N  0.93180524  0.08086609  0.39639916    -0.45400
N244        N  0.06427885  0.92655666  0.61543160    -0.45620
C245        C  0.89689337  0.89931995  0.41372228     0.43690
N246        N  0.91834926  0.95675018  0.56253443     0.02560
N247        N  0.04289025  0.95265955  0.42394620    -0.24320
N248        N  0.91421328  0.05393814  0.46083184    -0.24810
N249        N  0.07866741  0.95614705  0.44868590     0.02200
H250        H  0.02660098  0.91078253  0.36876192     0.08090
H251        H  0.14206714  0.91732844  0.54070830     0.08130
N252        N  0.95145461  0.95821251  0.59089231    -0.24860
N253        N  0.08321923  0.05149371  0.55120115    -0.24470
N254        N  0.94374078  0.95274858  0.43036422     0.02570
C255        C  0.90159212  0.10850750  0.60633643     0.43960
C256        C  0.05191777  0.08523303  0.39554422    -0.05720
N257        N  0.08206960  0.95440970  0.55129485    -0.24470
H258        H  0.14627015  0.08479728  0.54250865     0.08110
N259        N  0.88946985  0.08779541  0.56843560    -0.45690
H260        H  0.03244005  0.09142000  0.36646358     0.08100
C261        C  0.09693544  0.90562160  0.39922771     0.43800
C262        C  0.88425150  0.08666114  0.45231039    -0.05220
Co263      Co  0.99295272  0.00251624  0.42616236     0.73820
N264        N  0.10546132  0.08471642  0.44673694    -0.45410
C265        C  0.90051016  0.90693211  0.61199393     0.44060
N266        N  0.93443754  0.92104493  0.40101984    -0.45400
Co267      Co  0.08038281  0.00345380  0.50127621     0.73890
C268        C  0.11371036  0.92401634  0.56102489    -0.05730
C269        C  0.94561256  0.08853150  0.61693432    -0.05290
N270        N  0.91472024  0.95413717  0.46265897    -0.24820
N271        N  0.06035750  0.08718287  0.61018777    -0.45580
H272        H  0.96459249  0.92379710  0.65078647     0.08070
C273        C  0.04990306  0.91990712  0.39412187    -0.05700
Cl274      Cl  0.99797362  0.00356821  0.50627235    -0.48700
C275        C  0.09457961  0.10626705  0.40955768     0.43830
H276        H  0.85808289  0.91480533  0.47803919     0.08040
N277        N  0.11225154  0.93169951  0.43280869    -0.45410
C278        C  0.86491964  0.87092744  0.38344898    -0.01270
C279        C  0.12582354  0.87195704  0.37039434    -0.01270
C280        C  0.13364844  0.87520200  0.63467881    -0.01270
C281        C  0.86884276  0.13739051  0.63529348    -0.01270
C282        C  0.87178295  0.87474101  0.64112233    -0.01270
C283        C  0.73310660  0.73655835  0.51454025     0.01780
C284        C  0.76826134  0.76601429  0.51707183     0.01780
C285        C  0.12748886  0.13423140  0.38094911    -0.01270
C286        C  0.12778775  0.13783211  0.62777271    -0.01270
C287        C  0.00973376  0.74516181  0.78237402     0.01780
C288        C  0.00538952  0.77117588  0.74440415     0.01780
C289        C  0.76583846  0.00860842  0.73978279     0.01780
C290        C  0.73381859  0.00932354  0.77160143     0.01780
C291        C  0.76196095  0.74130173  0.99035147     0.01780
C292        C  0.73132498  0.77636510  0.99000082     0.01780
C293        C  0.96109189  0.78293742  0.72101620    -0.04120
C294        C  0.92625864  0.80885757  0.74014431    -0.01230
C295        C  0.89243099  0.82876046  0.71378318     0.03750
C296        C  0.90208243  0.84148381  0.66972934    -0.04120
C297        C  0.93914735  0.81757021  0.65167820    -0.01220
C298        C  0.95993209  0.78233020  0.67474289     0.03750
C299        C  0.92724507  0.82460235  0.78447850     0.38400
C300        C  0.96332290  0.83346662  0.61440787     0.38390
C301        C  0.97781977  0.74557615  0.64940429     0.36820
C302        C  0.85052685  0.83798607  0.73522323     0.36820
N303        N  0.98968930  0.71681035  0.62674094    -0.38000
N304        N  0.81904228  0.84385581  0.75623320    -0.38010
N305        N  0.98422483  0.84843379  0.58638843    -0.37450
N306        N  0.92302455  0.84332094  0.81728316    -0.37450
C307        C  0.84380265  0.90941999  0.66938557    -0.04120
C308        C  0.80030806  0.92387935  0.65670432    -0.01230
C309        C  0.77124051  0.94351897  0.68751831     0.03750
C310        C  0.78894783  0.96681900  0.72332142    -0.04120
C311        C  0.83499420  0.96136552  0.73221010    -0.01220
C312        C  0.86196085  0.93225506  0.70657447     0.03750
C313        C  0.78660810  0.92362341  0.61138904     0.38400
C314        C  0.85477435  0.98488747  0.76890224     0.38390
C315        C  0.90843971  0.92767012  0.71899960     0.36820
C316        C  0.72339128  0.94013676  0.68173083     0.36820
N317        N  0.94505177  0.92480968  0.73078407    -0.38000
N318        N  0.68524213  0.93649800  0.67706026    -0.38010
N319        N  0.87141190  0.00240073  0.79840946    -0.37450
N320        N  0.77617694  0.92469603  0.57506628    -0.37450
C321        C  0.84194168  0.84145537  0.61258354    -0.04120
C322        C  0.79748171  0.82638337  0.62403479    -0.01230
C323        C  0.77086361  0.80433468  0.59232214     0.03750
C324        C  0.79166470  0.77988146  0.55867761    -0.04120
C325        C  0.83858081  0.78089498  0.55854690    -0.01220
C326        C  0.86033787  0.81822841  0.57580367     0.03750
C327        C  0.77583269  0.83302674  0.66565151     0.38400
C328        C  0.86538472  0.74443734  0.54150913     0.38390
C329        C  0.89421183  0.83609508  0.54744150     0.36820
C330        C  0.72306596  0.81127265  0.59326359     0.36820
N331        N  0.91952479  0.84937114  0.52213991    -0.38000
N332        N  0.68540875  0.81978642  0.59499452    -0.38010
N333        N  0.88842168  0.71551994  0.52991310    -0.37450
N334        N  0.75360887  0.83674010  0.69631535    -0.37450
C335        C  0.83502388  0.10835117  0.66411562    -0.04120
C336        C  0.81591042  0.06752747  0.64911192    -0.01230
C337        C  0.77989006  0.04939088  0.67085898     0.03750
C338        C  0.78066153  0.04995855  0.71639450    -0.04120
C339        C  0.80388645  0.08561712  0.73587434    -0.01220
C340        C  0.82188645  0.11944088  0.70874252     0.03750
C341        C  0.83568982  0.03673799  0.61893634     0.38400
C342        C  0.81236199  0.08712952  0.78234823     0.38390
C343        C  0.82570913  0.16296773  0.72933288     0.36820
C344        C  0.74343622  0.03106558  0.64558271     0.36820
N345        N  0.82720231  0.19607128  0.74908323    -0.38000
N346        N  0.71436223  0.01874498  0.62380159    -0.38010
N347        N  0.82103989  0.08923996  0.81908648    -0.37450
N348        N  0.84795954  0.00902660  0.59553221    -0.37450
C349        C  0.10194615  0.84616792  0.66601886    -0.04120
C350        C  0.07273941  0.86719788  0.69756439    -0.01230
C351        C  0.04783403  0.84138144  0.72775871     0.03750
C352        C  0.04383446  0.79479366  0.72292424    -0.04120
C353        C  0.06941975  0.77357892  0.69035529    -0.01220
C354        C  0.10255277  0.79777262  0.66752314     0.03750
C355        C  0.07151819  0.91524115  0.70451426     0.38400
C356        C  0.06754137  0.72503632  0.68536620     0.38390
C357        C  0.13972214  0.77084927  0.65169208     0.36820
C358        C  0.02808712  0.86275320  0.76576425     0.36820
N359        N  0.16906891  0.74798656  0.64096287    -0.38000
N360        N  0.01395481  0.88038164  0.79648362    -0.38010
N361        N  0.06856117  0.68648411  0.68122969    -0.37450
N362        N  0.06886434  0.95294905  0.71298967    -0.37450
C363        C  0.83735748  0.84336803  0.41810907    -0.04120
C364        C  0.85302711  0.80191195  0.43480708    -0.01230
C365        C  0.82296009  0.77244194  0.45489600     0.03750
C366        C  0.78608716  0.79001172  0.47760656    -0.04120
C367        C  0.77632466  0.83612309  0.47215099    -0.01220
C368        C  0.79934972  0.86172964  0.44060607     0.03750
C369        C  0.90031379  0.79167367  0.43676999     0.38400
C370        C  0.74200289  0.85766372  0.49834763     0.38390
C371        C  0.78640923  0.90840103  0.43588083     0.36820
C372        C  0.83052547  0.72464940  0.45175495     0.36820
N373        N  0.77702043  0.94596725  0.43406004    -0.38000
N374        N  0.83709281  0.68661527  0.44775638    -0.38010
N375        N  0.71389053  0.87590760  0.51732456    -0.37450
N376        N  0.93814817  0.78408839  0.43936276    -0.37450
C377        C  0.15476507  0.84003609  0.40048520    -0.04120
C378        C  0.17046690  0.85682100  0.44031982    -0.01230
C379        C  0.21041677  0.84000160  0.45628121     0.03750
C380        C  0.21612102  0.79325678  0.45616410    -0.04120
C381        C  0.19236954  0.76951523  0.42322752    -0.01220
C382        C  0.16720188  0.79398733  0.39158139     0.03750
C383        C  0.13584134  0.85845694  0.47257685     0.38400
C384        C  0.18883858  0.72127547  0.42346363     0.38390
C385        C  0.15795869  0.77174858  0.35048437     0.36820
C386        C  0.24098453  0.86994767  0.47785444     0.36820
N387        N  0.15165010  0.75284320  0.31804437    -0.38000
N388        N  0.26643813  0.89420568  0.49348655    -0.38010
N389        N  0.18299241  0.68299323  0.42252036    -0.37450
N390        N  0.10427586  0.86008515  0.49407702    -0.37450
C391        C  0.21141237  0.79150308  0.53853236    -0.04120
C392        C  0.23369490  0.81654201  0.57117529    -0.01230
C393        C  0.20950143  0.83724454  0.60561702     0.03750
C394        C  0.16206040  0.84379458  0.60272840    -0.04120
C395        C  0.14018089  0.81641801  0.57085692    -0.01220
C396        C  0.16446069  0.78897821  0.54141252     0.03750
C397        C  0.28112217  0.82484552  0.56898068     0.38400
C398        C  0.09244216  0.80950786  0.57195052     0.38390
C399        C  0.13999717  0.75802938  0.51357370     0.36820
C400        C  0.23401248  0.84544865  0.64566996     0.36820
N401        N  0.11901003  0.73344873  0.49282156    -0.38000
N402        N  0.25461266  0.85086652  0.67720402    -0.38010
N403        N  0.05547594  0.79895144  0.57121021    -0.37450
N404        N  0.31843951  0.83455801  0.56936220    -0.37450
C405        C  0.79168345  0.22356666  0.46829853    -0.04120
C406        C  0.83715620  0.22999794  0.45736477    -0.01230
C407        C  0.86077822  0.19596613  0.43496353     0.03750
C408        C  0.83688896  0.16482766  0.40831558    -0.04120
C409        C  0.78941330  0.16729853  0.41145034    -0.01220
C410        C  0.77023426  0.18714560  0.44817060     0.03750
C411        C  0.85948581  0.27216815  0.46425488     0.38400
C412        C  0.75917535  0.15809933  0.37570181     0.38390
C413        C  0.73573765  0.16195859  0.46961476     0.36820
C414        C  0.90927774  0.19676657  0.43591092     0.36820
N415        N  0.70946348  0.13895633  0.48560580    -0.38000
N416        N  0.94788169  0.19746912  0.43683664    -0.38010
N417        N  0.73434094  0.15204379  0.34736267    -0.37450
N418        N  0.87989945  0.30486061  0.46710230    -0.37450
C419        C  0.84260751  0.16704916  0.60074844    -0.04120
C420        C  0.79833333  0.15766358  0.58748237    -0.01230
C421        C  0.77084459  0.19112641  0.56949209     0.03750
C422        C  0.78920245  0.23005926  0.55055797    -0.04120
C423        C  0.83484764  0.23794976  0.56017554    -0.01220
C424        C  0.86226627  0.20447686  0.57967480     0.03750
C425        C  0.78685391  0.11318017  0.57257576     0.38400
C426        C  0.85167081  0.28316974  0.55897485     0.38390
C427        C  0.91036740  0.20978827  0.57911494     0.36820
C428        C  0.72366236  0.18245932  0.57174358     0.36820
N429        N  0.94875770  0.21382174  0.57842842    -0.38000
N430        N  0.68768552  0.16993646  0.57750955    -0.38010
N431        N  0.86669962  0.31878481  0.56025404    -0.37450
N432        N  0.77590878  0.07946124  0.55726813    -0.37450
C433        C  0.83286812  0.90053889  0.35443421    -0.04120
C434        C  0.78955768  0.88700069  0.33860786    -0.01230
C435        C  0.76347434  0.91787767  0.31386826     0.03750
C436        C  0.78524996  0.95358810  0.29238795    -0.04120
C437        C  0.83146889  0.95544188  0.29677524    -0.01220
C438        C  0.84926497  0.94017913  0.33558836     0.03750
C439        C  0.76890391  0.84491388  0.34967790     0.38400
C440        C  0.85930206  0.97916785  0.26605894     0.38390
C441        C  0.86698654  0.97488825  0.36234373     0.36820
C442        C  0.71539234  0.91341694  0.31326951     0.36820
N443        N  0.87882436  0.00436530  0.38352047    -0.38000
N444        N  0.67709736  0.90866147  0.31413043    -0.38010
N445        N  0.88202027  0.99613314  0.24052937    -0.37450
N446        N  0.74947912  0.81261822  0.35781775    -0.37450
C447        C  0.77927622  0.03738468  0.29900821    -0.04120
C448        C  0.80393670  0.07133353  0.27845851    -0.01230
C449        C  0.82284918  0.10615146  0.30337102     0.03750
C450        C  0.82992385  0.10123378  0.34964783    -0.04120
C451        C  0.80191331  0.06837104  0.37004107    -0.01220
C452        C  0.77489988  0.03943591  0.34469561     0.03750
C453        C  0.81280235  0.07087518  0.23203087     0.38400
C454        C  0.79533829  0.06612015  0.41675615     0.38390
C455        C  0.74080018  0.01247781  0.36556408     0.36820
C456        C  0.82825666  0.14826433  0.28037685     0.36820
N457        N  0.71242147  0.99241041  0.38186956    -0.38000
N458        N  0.83116772  0.18067486  0.25990124    -0.38010
N459        N  0.78635101  0.06230274  0.45327028    -0.37450
N460        N  0.82269011  0.07309349  0.19563363    -0.37450
C461        C  0.03051889  0.78901666  0.29495238    -0.04120
C462        C  0.04140706  0.77838614  0.33836181    -0.01230
C463        C  0.06423105  0.81010331  0.36421660     0.03750
C464        C  0.09297719  0.84183357  0.34359319    -0.04120
C465        C  0.09172015  0.84102673  0.29724432    -0.01220
C466        C  0.05322832  0.82577649  0.27676715     0.03750
C467        C  0.03821597  0.73292513  0.35393668     0.38400
C468        C  0.13096089  0.84516956  0.27006252     0.38390
C469        C  0.03522000  0.85434633  0.24319662     0.36820
C470        C  0.05921682  0.80640333  0.41089302     0.36820
N471        N  0.02376902  0.87987538  0.21704345    -0.38000
N472        N  0.05204470  0.80101828  0.44754869    -0.38010
N473        N  0.16232446  0.84708951  0.24817071    -0.37450
N474        N  0.03899592  0.69663554  0.36713266    -0.37450
C475        C  0.89158395  0.84160227  0.34789799    -0.04120
C476        C  0.91862514  0.86027941  0.31334255    -0.01230
C477        C  0.93596930  0.83202386  0.28021494     0.03750
C478        C  0.94664737  0.78742281  0.29013079    -0.04120
C479        C  0.92314966  0.76953881  0.32598317    -0.01220
C480        C  0.88755293  0.79408944  0.34376792     0.03750
C481        C  0.93392454  0.90595290  0.31113178     0.38400
C482        C  0.93691112  0.73078740  0.35045825     0.38390
C483        C  0.84628175  0.76971394  0.34788443     0.36820
C484        C  0.93455384  0.84642873  0.23529577     0.36820
N485        N  0.81508904  0.74711212  0.34973028    -0.38000
N486        N  0.93139218  0.85797781  0.19940251    -0.38010
N487        N  0.94517799  0.70105028  0.37331675    -0.37450
N488        N  0.94844497  0.94168300  0.30797937    -0.37450
C489        C  0.66976912  0.10376452  0.16851600    -0.04120
C490        C  0.70070055  0.07221429  0.14972083    -0.01230
C491        C  0.72485303  0.04132087  0.17552243     0.03750
C492        C  0.71740303  0.03817535  0.22052445    -0.04120
C493        C  0.69145277  0.07170179  0.24058918    -0.01220
C494        C  0.67236919  0.10674081  0.21547278     0.03750
C495        C  0.71120632  0.07019492  0.10400237     0.38400
C496        C  0.68199516  0.06995969  0.28693873     0.38390
C497        C  0.66052012  0.14636536  0.24018261     0.36820
C498        C  0.75874274  0.01274732  0.15541608     0.36820
N499        N  0.65324003  0.17607959  0.26343878    -0.38000
N500        N  0.78651412  0.99167996  0.13883345    -0.38010
N501        N  0.67228923  0.07013949  0.32345342    -0.37450
N502        N  0.72408943  0.06289219  0.06919382    -0.37450
C503        C  0.65061963  0.91518039  0.84034336    -0.04120
C504        C  0.69139269  0.89823251  0.82165409    -0.01230
C505        C  0.72264518  0.92856163  0.80355892     0.03750
C506        C  0.70682871  0.96903218  0.78527725    -0.04120
C507        C  0.66107909  0.97682242  0.78815998    -0.01220
C508        C  0.63642234  0.95761376  0.82235649     0.03750
C509        C  0.70119982  0.85063470  0.81954104     0.38400
C510        C  0.63949424  0.00112864  0.75290917     0.38390
C511        C  0.59464887  0.97971416  0.83152559     0.36820
C512        C  0.76946983  0.92022429  0.81080046     0.36820
N513        N  0.56180568  0.99962361  0.83656159    -0.38000
N514        N  0.80641447  0.91309391  0.81946897    -0.38010
N515        N  0.62276752  0.01774175  0.72292620    -0.37450
N516        N  0.70895582  0.81264220  0.81746566    -0.37450
C517        C  0.65252674  0.85719451  0.90475656    -0.04120
C518        C  0.63604398  0.82326803  0.93204635    -0.01230
C519        C  0.66353734  0.78692153  0.94290991     0.03750
C520        C  0.70996863  0.79387210  0.94828720    -0.04120
C521        C  0.72720935  0.83310648  0.92853481    -0.01220
C522        C  0.69801285  0.86681675  0.91275713     0.03750
C523        C  0.61103062  0.83857971  0.96949264     0.38400
C524        C  0.77429858  0.83899424  0.92093657     0.38390
C525        C  0.71195732  0.91293799  0.91588262     0.36820
C526        C  0.64131431  0.74673083  0.95710905     0.36820
N527        N  0.72200142  0.94994497  0.92061866    -0.38000
N528        N  0.62071949  0.71576802  0.96727449    -0.38010
N529        N  0.81095824  0.84682241  0.91210066    -0.37450
N530        N  0.59162548  0.85025081  0.00008790    -0.37450
C531        C  0.53569027  0.78783558  0.79845450    -0.04120
C532        C  0.56544443  0.81600094  0.77629290    -0.01230
C533        C  0.58771075  0.85076663  0.79885174     0.03750
C534        C  0.58933505  0.85264721  0.84559349    -0.04120
C535        C  0.55865172  0.82338038  0.86699489    -0.01220
C536        C  0.53616013  0.78909943  0.84442519     0.03750
C537        C  0.56755051  0.81678577  0.72905131     0.38400
C538        C  0.53937379  0.83515765  0.90860301     0.38390
C539        C  0.51036373  0.75698101  0.86937706     0.36820
C540        C  0.59375616  0.88994365  0.77200393     0.36820
N541        N  0.49121427  0.73150200  0.89062907    -0.38000
N542        N  0.59360756  0.91805662  0.74612154    -0.38010
N543        N  0.52203909  0.84589155  0.94068619    -0.37450
N544        N  0.57187733  0.82427950  0.69231783    -0.37450
C545        C  0.45258445  0.79690286  0.79269693    -0.04120
C546        C  0.41936643  0.77630966  0.81781229    -0.01230
C547        C  0.38689124  0.80243724  0.83993256     0.03750
C548        C  0.39186633  0.85040246  0.84519894    -0.04120
C549        C  0.42335847  0.87055786  0.81619090    -0.01220
C550        C  0.45163106  0.84416427  0.78943644     0.03750
C551        C  0.41858996  0.72797124  0.82244804     0.38400
C552        C  0.42345503  0.91837780  0.80783057     0.38390
C553        C  0.47741198  0.86639395  0.75581276     0.36820
C554        C  0.34556348  0.77928575  0.84931533     0.36820
N555        N  0.49540271  0.88591002  0.72846966    -0.38000
N556        N  0.31307471  0.75926296  0.85475545    -0.38010
N557        N  0.42532734  0.95573971  0.79813314    -0.37450
N558        N  0.41724972  0.68966665  0.82798722    -0.37450
C559        C  0.71224822  0.79886658  0.03077367    -0.04120
C560        C  0.67495360  0.78020284  0.05215025    -0.01230
C561        C  0.64486684  0.80755412  0.07614135     0.03750
C562        C  0.65872793  0.84969635  0.09304200    -0.04120
C563        C  0.69592297  0.86936715  0.07064241    -0.01220
C564        C  0.72111646  0.84477920  0.03942467     0.03750
C565        C  0.66750114  0.73244124  0.05206837     0.38400
C566        C  0.70768668  0.91620968  0.07720982     0.38390
C567        C  0.75669220  0.86812451  0.01712971     0.36820
C568        C  0.60003421  0.79097764  0.08324974     0.36820
N569        N  0.78479761  0.88922846  0.00160512    -0.38000
N570        N  0.56488505  0.77607645  0.08848077    -0.38010
N571        N  0.71657702  0.95368939  0.08098963    -0.37450
N572        N  0.65928328  0.69473971  0.05474550    -0.37450
C573        C  0.66408407  0.90522570  0.15879975    -0.04120
C574        C  0.70821755  0.89159248  0.17338736    -0.01230
C575        C  0.73314557  0.92025764  0.20158870     0.03750
C576        C  0.71068596  0.95440509  0.22520082    -0.04120
C577        C  0.66456071  0.95676912  0.22006981    -0.01220
C578        C  0.64723097  0.94343923  0.18029601     0.03750
C579        C  0.73219413  0.85319192  0.15638565     0.38400
C580        C  0.63616085  0.97954176  0.25133126     0.38390
C581        C  0.62623096  0.97847759  0.15641007     0.36820
C582        C  0.78126463  0.91524314  0.20365923     0.36820
N583        N  0.61044077  0.00812487  0.13815465    -0.38000
N584        N  0.81953264  0.90976647  0.20355621    -0.38010
N585        N  0.61272554  0.99590200  0.27684974    -0.37450
N586        N  0.75497887  0.82488475  0.14305837    -0.37450
C587        C  0.71881902  0.05176575  0.79508645    -0.04120
C588        C  0.72066497  0.05087066  0.84082929    -0.01230
C589        C  0.69049357  0.07654106  0.86623520     0.03750
C590        C  0.66360792  0.11126899  0.84671359    -0.04120
C591        C  0.67482006  0.12074696  0.80196463    -0.01220
C592        C  0.69576760  0.08799088  0.77550917     0.03750
C593        C  0.75564114  0.02443000  0.86145261     0.38400
C594        C  0.67186610  0.16584847  0.78411476     0.38390
C595        C  0.69160075  0.09255194  0.72871763     0.36820
C596        C  0.69108978  0.06748342  0.91247473     0.36820
N597        N  0.68628935  0.09829809  0.69175690    -0.38000
N598        N  0.69319334  0.05688887  0.94871429    -0.38010
N599        N  0.67054328  0.20168177  0.76974813    -0.37450
N600        N  0.78496892  0.00485920  0.87714894    -0.37450
C601        C  0.45546783  0.21376276  0.77976536    -0.04120
C602        C  0.42150192  0.23558447  0.80346527    -0.01230
C603        C  0.38785431  0.20991173  0.82377134     0.03750
C604        C  0.39601906  0.16394702  0.83612023    -0.04120
C605        C  0.43060131  0.14263095  0.81018397    -0.01220
C606        C  0.45338416  0.16682250  0.77779642     0.03750
C607        C  0.41918674  0.28394031  0.80693806     0.38400
C608        C  0.44682123  0.09706163  0.81433910     0.38390
C609        C  0.47143728  0.14279833  0.74043732     0.36820
C610        C  0.34444185  0.23116766  0.82622123     0.36820
N611        N  0.48319586  0.12205309  0.71058712    -0.38000
N612        N  0.31125558  0.25111540  0.82604236    -0.38010
N613        N  0.46314638  0.06177598  0.81503593    -0.37450
N614        N  0.41550868  0.32233540  0.81110778    -0.37450
C615        C  0.59836023  0.17195609  0.84342751    -0.04120
C616        C  0.58419683  0.21789688  0.85077788    -0.01230
C617        C  0.54689001  0.23529871  0.82832439     0.03750
C618        C  0.53828331  0.22063224  0.78575927    -0.04120
C619        C  0.56096624  0.18224202  0.77196385    -0.01220
C620        C  0.57987661  0.15370170  0.80375035     0.03750
C621        C  0.60708458  0.25208181  0.87507634     0.38400
C622        C  0.56604168  0.17244052  0.72594420     0.38390
C623        C  0.57919974  0.10685509  0.79330293     0.36820
C624        C  0.51980966  0.27016357  0.84856089     0.36820
N625        N  0.57543532  0.07010359  0.78247187    -0.38000
N626        N  0.49964836  0.29820298  0.86585258    -0.38010
N627        N  0.57137554  0.16449343  0.68934156    -0.37450
N628        N  0.61889019  0.28345503  0.89396646    -0.37450
C629        C  0.47206461  0.79549247  0.21480262    -0.04120
C630        C  0.42959629  0.77660586  0.20321915    -0.01230
C631        C  0.39427674  0.80611074  0.18883896     0.03750
C632        C  0.40598419  0.84668227  0.16584487    -0.04120
C633        C  0.45238924  0.85430943  0.16689537    -0.01220
C634        C  0.47443443  0.84119619  0.20485040     0.03750
C635        C  0.42326693  0.72922065  0.19623419     0.38400
C636        C  0.47695130  0.84716127  0.12683242     0.38390
C637        C  0.46873516  0.87081304  0.24175334     0.36820
C638        C  0.34911989  0.79109148  0.19522847     0.36820
N639        N  0.46427106  0.89423695  0.27163272    -0.38000
N640        N  0.31471439  0.77554602  0.20279557    -0.38010
N641        N  0.49593319  0.84274881  0.09425622    -0.37450
N642        N  0.41572258  0.69212702  0.18822189    -0.37450
C643        C  0.60596695  0.84662034  0.16585247    -0.04120
C644        C  0.61895429  0.80115462  0.17702692    -0.01230
C645        C  0.59456366  0.77540495  0.20847522     0.03750
C646        C  0.55859947  0.79490565  0.23130343    -0.04120
C647        C  0.56323451  0.84091916  0.23549155    -0.01220
C648        C  0.57776145  0.86646416  0.19937449     0.03750
C649        C  0.66026640  0.78063438  0.16231729     0.38400
C650        C  0.55865293  0.86054462  0.27852468     0.38390
C651        C  0.56043914  0.91165772  0.19934909     0.36820
C652        C  0.62111782  0.74307931  0.23215508     0.36820
N653        N  0.54443967  0.94698314  0.20191540    -0.38000
N654        N  0.64609785  0.71959247  0.24976318    -0.38010
N655        N  0.55582110  0.87609758  0.31304564    -0.37450
N656        N  0.69155663  0.76000981  0.15269323    -0.37450
C657        C  0.16556319  0.90783407  0.66227332    -0.04120
C658        C  0.17075070  0.90544045  0.70884446    -0.01230
C659        C  0.18923051  0.94118509  0.73314457     0.03750
C660        C  0.21474941  0.97439994  0.71247859    -0.04120
C661        C  0.22001293  0.97061157  0.66679281    -0.01220
C662        C  0.19425726  0.93997065  0.64184079     0.03750
C663        C  0.16323693  0.86497318  0.73345869     0.38400
C664        C  0.25502145  0.99553153  0.64501461     0.38390
C665        C  0.20399647  0.93889611  0.59569333     0.36820
C666        C  0.17941695  0.94289943  0.77930882     0.36820
N667        N  0.21585680  0.94051772  0.55984352    -0.38000
N668        N  0.16817099  0.94096645  0.81531953    -0.38010
N669        N  0.28345412  0.01295198  0.62609970    -0.37450
N670        N  0.15836568  0.83501507  0.75668014    -0.37450
C671        C  0.15990604  0.10581804  0.65551806    -0.04120
C672        C  0.20716987  0.10326471  0.65246953    -0.01230
C673        C  0.23282462  0.08455304  0.68697502     0.03750
C674        C  0.21160961  0.05897072  0.71975724    -0.04120
C675        C  0.16482746  0.06089391  0.72122207    -0.01220
C676        C  0.14214769  0.07329439  0.68356328     0.03750
C677        C  0.22763123  0.10443299  0.61000816     0.38400
C678        C  0.13952109  0.03978348  0.75568697     0.38390
C679        C  0.11947694  0.03635911  0.66343763     0.36820
C680        C  0.28065922  0.09059177  0.68679127     0.36820
N681        N  0.10330536  0.00585572  0.64673801    -0.38000
N682        N  0.31857501  0.09746392  0.68501476    -0.38010
N683        N  0.11786606  0.02430507  0.78294964    -0.37450
N684        N  0.24380203  0.10345072  0.57587416    -0.37450
C685        C  0.33649151  0.10384677  0.84853517    -0.04120
C686        C  0.29101386  0.09522021  0.85597380    -0.01230
C687        C  0.26426896  0.08067076  0.82095069     0.03750
C688        C  0.28440953  0.05661812  0.78639469    -0.04120
C689        C  0.33156730  0.05729921  0.78423874    -0.01220
C690        C  0.35544594  0.07215445  0.82060961     0.03750
C691        C  0.27849398  0.07956339  0.89887283     0.38400
C692        C  0.35608414  0.03399870  0.75035330     0.38390
C693        C  0.37554138  0.03615197  0.84421739     0.36820
C694        C  0.21665377  0.08794524  0.82321308     0.36820
N695        N  0.38914771  0.00748924  0.86542371    -0.38000
N696        N  0.17895102  0.09577699  0.82652891    -0.38010
N697        N  0.37684303  0.01657089  0.72332655    -0.37450
N698        N  0.26909116  0.06508439  0.93258787    -0.37450
C699        C  0.27727936  0.97327541  0.79381232    -0.04120
C700        C  0.30341754  0.93956089  0.77421314    -0.01230
C701        C  0.32336803  0.90574352  0.80001353     0.03750
C702        C  0.32886495  0.91146174  0.84655496    -0.04120
C703        C  0.29944781  0.94386760  0.86582675    -0.01220
C704        C  0.27155869  0.97114132  0.83956034     0.03750
C705        C  0.31076534  0.93852938  0.72753730     0.38400
C706        C  0.29109879  0.94549391  0.91238451     0.38390
C707        C  0.23361318  0.99316498  0.85990730     0.36820
C708        C  0.33049909  0.86321599  0.77791157     0.36820
N709        N  0.20292114  0.00817888  0.87774630    -0.38000
N710        N  0.33462066  0.83006789  0.75858338    -0.38010
N711        N  0.28047814  0.94820425  0.94860089    -0.37450
N712        N  0.31876273  0.93580167  0.69071462    -0.37450
C713        C  0.10245748  0.66457861  0.17670617    -0.04120
C714        C  0.06980745  0.64344471  0.20431618    -0.01230
C715        C  0.04276527  0.66932278  0.23289125     0.03750
C716        C  0.03838503  0.71587171  0.22699130    -0.04120
C717        C  0.07327141  0.73645304  0.20313690    -0.01220
C718        C  0.10927045  0.71042907  0.18749561     0.03750
C719        C  0.06155948  0.59577868  0.20525009     0.38400
C720        C  0.07263084  0.78195819  0.18773150     0.38390
C721        C  0.15210154  0.73245498  0.18534198     0.36820
C722        C  0.02206413  0.64782233  0.26994014     0.36820
N723        N  0.18400486  0.75410599  0.18519186    -0.38000
N724        N  0.00857126  0.62874577  0.29991667    -0.38010
N725        N  0.07735578  0.81618517  0.17070377    -0.37450
N726        N  0.05169711  0.55837718  0.20750621    -0.37450
C727        C  0.78065756  0.71886672  0.03137285    -0.04120
C728        C  0.80755210  0.74121924  0.06235199    -0.01230
C729        C  0.82746737  0.71734541  0.09741147     0.03750
C730        C  0.83484821  0.66955906  0.09460212    -0.04120
C731        C  0.80995867  0.64774716  0.06098151    -0.01220
C732        C  0.77835029  0.67172121  0.03567434     0.03750
C733        C  0.81805434  0.78819329  0.05860074     0.38400
C734        C  0.81106130  0.59968204  0.05514230     0.38390
C735        C  0.73968444  0.64738639  0.02034636     0.36820
C736        C  0.83497897  0.74327552  0.13684961     0.36820
N737        N  0.70936384  0.62559114  0.01067848    -0.38000
N738        N  0.84004211  0.76563159  0.16738291    -0.38010
N739        N  0.80926310  0.56180272  0.04763494    -0.37450
N740        N  0.83036407  0.82484982  0.05861071    -0.37450
C741        C  0.89376390  0.67364583  0.15711242    -0.04120
C742        C  0.92740266  0.70246080  0.13957001    -0.01230
C743        C  0.95377384  0.72952544  0.16774386     0.03750
C744        C  0.95461028  0.72171486  0.21320511    -0.04120
C745        C  0.91997908  0.69469317  0.22997341    -0.01220
C746        C  0.88559724  0.68000509  0.20254460     0.03750
C747        C  0.93089319  0.71106394  0.09322606     0.38400
C748        C  0.92075609  0.67350619  0.27198835     0.38390
C749        C  0.84138542  0.67661527  0.22176573     0.36820
C750        C  0.97575160  0.76851586  0.15001718     0.36820
N751        N  0.80656567  0.67470648  0.23796454    -0.38000
N752        N  0.99037455  0.80034054  0.13412819    -0.38010
N753        N  0.91698002  0.65127502  0.30260880    -0.37450
N754        N  0.93463722  0.72115776  0.05698252    -0.37450
C755        C  0.79415316  0.46494855  0.78578479    -0.04120
C756        C  0.77466274  0.44356757  0.82200465    -0.01230
C757        C  0.80111149  0.42263713  0.85422841     0.03750
C758        C  0.84810418  0.41493994  0.84782133    -0.04120
C759        C  0.86784238  0.44259027  0.81455725    -0.01220
C760        C  0.84098193  0.46380053  0.78236040     0.03750
C761        C  0.72634695  0.44181393  0.82631825     0.38400
C762        C  0.91569620  0.44923803  0.81097512     0.38390
C763        C  0.86163947  0.48367988  0.74424991     0.36820
C764        C  0.77938617  0.41775560  0.89627736     0.36820
N765        N  0.87826317  0.49866889  0.71355557    -0.38000
N766        N  0.75992758  0.41517273  0.92878671    -0.38010
N767        N  0.95355986  0.45564840  0.80705668    -0.37450
N768        N  0.68827864  0.43800702  0.83103761    -0.37450
C769        C  0.10808778  0.67556608  0.86002614    -0.04120
C770        C  0.06195472  0.68399824  0.86730134    -0.01230
C771        C  0.04611584  0.72603542  0.85487215     0.03750
C772        C  0.05289658  0.73667338  0.81062891    -0.04120
C773        C  0.09941944  0.72947043  0.79989701    -0.01220
C774        C  0.12790748  0.70561742  0.82963400     0.03750
C775        C  0.03011837  0.64820750  0.86453462     0.38400
C776        C  0.12245806  0.74192278  0.76154129     0.38390
C777        C  0.17550730  0.71363693  0.82746476     0.36820
C778        C  0.05823562  0.76144768  0.88492260     0.36820
N779        N  0.21201120  0.72520656  0.82284518    -0.38000
N780        N  0.06815327  0.79005508  0.90850472    -0.38010
N781        N  0.15031792  0.74604996  0.73595501    -0.37450
N782        N  0.00542133  0.61875430  0.86151395    -0.37450
C783        C  0.83817111  0.66440018  0.89678218    -0.04120
C784        C  0.84124088  0.71238742  0.89705271    -0.01230
C785        C  0.82242443  0.73629262  0.93218210     0.03750
C786        C  0.78086065  0.72242808  0.94843181    -0.04120
C787        C  0.76606218  0.68110258  0.93211569    -0.01220
C788        C  0.79829191  0.64944128  0.91829354     0.03750
C789        C  0.84706178  0.73819812  0.85772509     0.38400
C790        C  0.71932451  0.67099984  0.92691958     0.38390
C791        C  0.79167426  0.60572799  0.93653005     0.36820
C792        C  0.84929236  0.76961729  0.95383278     0.36820
N793        N  0.78241636  0.57294438  0.95438769    -0.38000
N794        N  0.87212663  0.79551229  0.97084551    -0.38010
N795        N  0.68270699  0.66081348  0.92048638    -0.37450
N796        N  0.85071656  0.76066776  0.82725665    -0.37450
C797        C  0.91096487  0.65965541  0.84756193    -0.04120
C798        C  0.92932905  0.64802719  0.80594212    -0.01230
C799        C  0.95614528  0.67885163  0.78214895     0.03750
C800        C  0.96884557  0.72059280  0.80037960    -0.04120
C801        C  0.95311756  0.73019737  0.84313867    -0.01220
C802        C  0.93221808  0.69675118  0.86817168     0.03750
C803        C  0.92716189  0.60229413  0.78994887     0.38400
C804        C  0.96218960  0.77260372  0.86461624     0.38390
C805        C  0.93447314  0.70123984  0.91537123     0.36820
C806        C  0.97141565  0.66618195  0.73908887     0.36820
N807        N  0.93756371  0.70618100  0.95272673    -0.38000
N808        N  0.98193155  0.65407879  0.70473483    -0.38010
N809        N  0.96889984  0.80505658  0.88432503    -0.37450
N810        N  0.92636480  0.56603043  0.77651868    -0.37450
C811        C  0.78421792  0.54658833  0.78888986    -0.04120
C812        C  0.81067374  0.58027185  0.76934712    -0.01230
C813        C  0.83085738  0.61328852  0.79669270     0.03750
C814        C  0.84332241  0.60143898  0.84068476    -0.04120
C815        C  0.82058876  0.56248175  0.85660520    -0.01220
C816        C  0.78332333  0.54684950  0.83443653     0.03750
C817        C  0.81387836  0.58355454  0.72233015     0.38400
C818        C  0.83598585  0.53294834  0.89092977     0.38390
C819        C  0.74401380  0.53428469  0.85870532     0.36820
C820        C  0.83709334  0.65754950  0.77868088     0.36820
N821        N  0.71259802  0.52608210  0.87905656    -0.38000
N822        N  0.84125472  0.69211467  0.76220228    -0.38010
N823        N  0.84699358  0.50818577  0.91795504    -0.37450
N824        N  0.81628219  0.58646803  0.68476538    -0.37450
C825        C  0.20394136  0.54455652  0.78903177    -0.04120
C826        C  0.21815685  0.54927063  0.83266869    -0.01230
C827        C  0.19351912  0.57546299  0.86265319     0.03750
C828        C  0.15821049  0.60424943  0.84840620    -0.04120
C829        C  0.14314306  0.59793017  0.80418914    -0.01220
C830        C  0.16676350  0.56965733  0.77483239     0.03750
C831        C  0.25907768  0.52778269  0.84723900     0.38400
C832        C  0.10106814  0.61563943  0.78840889     0.38390
C833        C  0.15510257  0.56923599  0.72877501     0.36820
C834        C  0.20468869  0.57092249  0.90879817     0.36820
N835        N  0.14621631  0.56940159  0.69201492    -0.38000
N836        N  0.21447080  0.56626728  0.94505236    -0.38010
N837        N  0.06775641  0.62842957  0.77376345    -0.37450
N838        N  0.29192711  0.51210828  0.86014219    -0.37450
C839        C  0.20546445  0.46150898  0.78055284    -0.04120
C840        C  0.23232532  0.43078400  0.80498846    -0.01230
C841        C  0.21137252  0.39900079  0.83322686     0.03750
C842        C  0.16487629  0.40484067  0.84482604    -0.04120
C843        C  0.14473411  0.44283754  0.82730476    -0.01220
C844        C  0.15906362  0.45750306  0.78696544     0.03750
C845        C  0.28048473  0.43040447  0.80248262     0.38400
C846        C  0.14552070  0.47745525  0.85940574     0.38390
C847        C  0.12588894  0.47455764  0.75718587     0.36820
C848        C  0.23786633  0.36077891  0.84695106     0.36820
N849        N  0.09802040  0.48658454  0.73372987    -0.38000
N850        N  0.26012960  0.33081737  0.85727738    -0.38010
N851        N  0.14723944  0.49979975  0.89000836    -0.37450
N852        N  0.31901032  0.42749662  0.80326554    -0.37450
C853        C  0.83487204  0.60882081  0.15834100    -0.04120
C854        C  0.85485122  0.58220229  0.19264993    -0.01230
C855        C  0.82801950  0.55846515  0.22306231     0.03750
C856        C  0.78220609  0.55131822  0.21526632    -0.04120
C857        C  0.76319966  0.57339519  0.17902078    -0.01220
C858        C  0.78689222  0.60738648  0.15710095     0.03750
C859        C  0.90260725  0.58243873  0.20107774     0.38400
C860        C  0.71790189  0.56346500  0.16508820     0.38390
C861        C  0.75960198  0.64403950  0.14116474     0.36820
C862        C  0.84782882  0.54229499  0.26325285     0.36820
N863        N  0.73636287  0.67284140  0.12979291    -0.38000
N864        N  0.86467307  0.53121571  0.29548642    -0.38010
N865        N  0.68136790  0.55751527  0.15426460    -0.37450
N866        N  0.94050603  0.58216319  0.20855520    -0.37450
C867        C  0.77827616  0.46839929  0.21353518    -0.04120
C868        C  0.77905559  0.46544710  0.16809225    -0.01230
C869        C  0.81686040  0.44775575  0.14820368     0.03750
C870        C  0.83804849  0.40920267  0.16618503    -0.04120
C871        C  0.82720642  0.40304473  0.21203285    -0.01220
C872        C  0.80727748  0.43872021  0.23566245     0.03750
C873        C  0.73904324  0.46986266  0.14235719     0.38400
C874        C  0.83302807  0.36223453  0.23697540     0.38390
C875        C  0.81602671  0.44209498  0.28194885     0.36820
C876        C  0.83821636  0.47804232  0.11860049     0.36820
N877        N  0.82597398  0.44202424  0.31838713    -0.38000
N878        N  0.85511566  0.50263807  0.09483403    -0.38010
N879        N  0.83585713  0.33148492  0.25980616    -0.37450
N880        N  0.70731937  0.47103621  0.12079312    -0.37450
C881        C  0.04063019  0.22009064  0.71589310    -0.04120
C882        C  0.04561946  0.23183152  0.67176894    -0.01230
C883        C  0.08060404  0.21253253  0.64759481     0.03750
C884        C  0.09644231  0.16790705  0.65839240    -0.04120
C885        C  0.08134078  0.15256947  0.70008198    -0.01220
C886        C  0.06637334  0.18402748  0.73103957     0.03750
C887        C  0.01892481  0.26688210  0.65157331     0.38400
C888        C  0.05954312  0.10971252  0.70431823     0.38390
C889        C  0.07186428  0.17530582  0.77710359     0.36820
C890        C  0.10145944  0.24389715  0.61807750     0.36820
N891        N  0.07691379  0.16833004  0.81391182    -0.38000
N892        N  0.11633928  0.27194270  0.59657162    -0.38010
N893        N  0.04042670  0.07636337  0.70851907    -0.37450
N894        N  0.00052664  0.29519201  0.63298298    -0.37450
C895        C  0.95799068  0.21431936  0.72487495    -0.04120
C896        C  0.92599775  0.23706504  0.69900583    -0.01230
C897        C  0.89330158  0.21302540  0.67549102     0.03750
C898        C  0.89740969  0.16554581  0.66929313    -0.04120
C899        C  0.92417065  0.14309338  0.70131481    -0.01220
C900        C  0.95315089  0.16725905  0.72900523     0.03750
C901        C  0.92636798  0.28509589  0.69363083     0.38400
C902        C  0.91968005  0.09508396  0.70905289     0.38390
C903        C  0.97627541  0.14261704  0.76293101     0.36820
C904        C  0.85195153  0.23689311  0.66586667     0.36820
N905        N  0.99220709  0.12046555  0.78978850    -0.38000
N906        N  0.81894702  0.25633871  0.65995553    -0.38010
N907        N  0.91662929  0.05697444  0.71529487    -0.37450
N908        N  0.92451166  0.32286524  0.68542248    -0.37450
C909        C  0.96218453  0.28948829  0.79170332    -0.04120
C910        C  0.93650480  0.26872482  0.82406998    -0.01230
C911        C  0.91090686  0.29562728  0.85320429     0.03750
C912        C  0.89942374  0.34134170  0.84226238    -0.04120
C913        C  0.91367981  0.35364506  0.79985198    -0.01220
C914        C  0.95274089  0.33472101  0.78288349     0.03750
C915        C  0.93812428  0.22058104  0.83023576     0.38400
C916        C  0.88056679  0.36296998  0.76673630     0.38390
C917        C  0.97987408  0.36112657  0.75370552     0.36820
C918        C  0.89497871  0.27210704  0.89089652     0.36820
N919        N  0.00121573  0.38286053  0.73059699    -0.38000
N920        N  0.88307904  0.24701212  0.91693613    -0.38010
N921        N  0.85543799  0.36986030  0.73882860    -0.37450
N922        N  0.93673607  0.18287917  0.83869153    -0.37450
C923        C  0.04610293  0.28493729  0.79438961    -0.04120
C924        C  0.04730221  0.28801602  0.84043718    -0.01230
C925        C  0.06385090  0.32704039  0.85913788     0.03750
C926        C  0.10348619  0.34530166  0.84219861    -0.04120
C927        C  0.11220969  0.33393235  0.79718696    -0.01220
C928        C  0.07965979  0.30997650  0.77252056     0.03750
C929        C  0.02720844  0.25580508  0.86923815     0.38400
C930        C  0.15438733  0.34189100  0.77558925     0.38390
C931        C  0.08164500  0.31440886  0.72573766     0.36820
C932        C  0.02862116  0.35896978  0.86571211     0.36820
N933        N  0.08719427  0.32187154  0.68915269    -0.38000
N934        N  0.00089575  0.38585340  0.86675821    -0.38010
N935        N  0.18713946  0.34584487  0.75600215    -0.37450
N936        N  0.01275298  0.23063568  0.89409306    -0.37450
C937        C  0.66932133  0.16185295  0.10872330    -0.04120
C938        C  0.66559875  0.16003791  0.06321410    -0.01230
C939        C  0.70193192  0.17326250  0.03885927     0.03750
C940        C  0.72167543  0.21464616  0.04854920    -0.04120
C941        C  0.71935765  0.22588297  0.09430006    -0.01220
C942        C  0.70145753  0.19371669  0.12424225     0.03750
C943        C  0.62173752  0.16802467  0.04509892     0.38400
C944        C  0.72367477  0.27050273  0.11194831     0.38390
C945        C  0.71466897  0.19709298  0.16942032     0.36820
C946        C  0.72698477  0.14011404  0.01487009     0.36820
N947        N  0.72890969  0.20183239  0.20422734    -0.38000
N948        N  0.74893386  0.11435507  0.99635411    -0.38010
N949        N  0.72434459  0.30474871  0.12979030    -0.37450
N950        N  0.58465996  0.17320894  0.03579190    -0.37450
C951        C  0.71248487  0.22577903  0.96728017    -0.04120
C952        C  0.73353654  0.19802043  0.93651106    -0.01230
C953        C  0.70844361  0.17774395  0.90280998     0.03750
C954        C  0.66033384  0.17238095  0.90639841    -0.04120
C955        C  0.64003770  0.19678180  0.94135108    -0.01220
C956        C  0.66531312  0.22788306  0.96637240     0.03750
C957        C  0.78133969  0.18993462  0.93954590     0.38400
C958        C  0.59188622  0.19546149  0.94749359     0.38390
C959        C  0.64288600  0.26368853  0.98968236     0.36820
C960        C  0.73430759  0.16921850  0.86384421     0.36820
N961        N  0.62454104  0.29356344  0.00592923    -0.38000
N962        N  0.75783113  0.16464238  0.83423311    -0.38010
N963        N  0.55339804  0.19507793  0.95103324    -0.37450
N964        N  0.81901815  0.18191358  0.94258201    -0.37450
C965        C  0.78889707  0.29115545  0.04882973    -0.04120
C966        C  0.77566573  0.33533460  0.05722139    -0.01230
C967        C  0.80360306  0.36468664  0.08065071     0.03750
C968        C  0.84292929  0.34877830  0.10324183    -0.04120
C969        C  0.85774160  0.30523144  0.08945993    -0.01220
C970        C  0.82810845  0.27483674  0.06854109     0.03750
C971        C  0.73395005  0.35155432  0.03787828     0.38400
C972        C  0.90463839  0.29279248  0.09234389     0.38390
C973        C  0.84103606  0.22850632  0.06134812     0.36820
C974        C  0.79672646  0.41034876  0.06709151     0.36820
N975        N  0.85124568  0.19150646  0.05558886    -0.38000
N976        N  0.78647577  0.44426729  0.05159696    -0.38010
N977        N  0.94203885  0.28300784  0.09419341    -0.37450
N978        N  0.70103098  0.36447237  0.02251155    -0.37450
C979        C  0.79477573  0.29573750  0.96666983    -0.04120
C980        C  0.78110204  0.29988660  0.92165208    -0.01230
C981        C  0.80992701  0.32074115  0.89070299     0.03750
C982        C  0.84308902  0.35147888  0.90529577    -0.04120
C983        C  0.84361267  0.35777349  0.95085792    -0.01220
C984        C  0.83366885  0.32125266  0.97632262     0.03750
C985        C  0.73807778  0.28957031  0.90456546     0.38400
C986        C  0.85078082  0.40050900  0.97216427     0.38390
C987        C  0.87351338  0.29882826  0.99127412     0.36820
C988        C  0.80630333  0.30812818  0.84512286     0.36820
N989        N  0.90671982  0.28101853  0.00015455    -0.38000
N990        N  0.80437780  0.29476564  0.80971502    -0.38010
N991        N  0.85753324  0.43481505  0.98851438    -0.37450
N992        N  0.70594444  0.28273300  0.88502169    -0.37450
C993        C  0.21407388  0.72294741  0.05176852    -0.04120
C994        C  0.17710620  0.74107677  0.07424818    -0.01230
C995        C  0.14564889  0.71224667  0.09404462     0.03750
C996        C  0.15768539  0.66779145  0.10619204    -0.04120
C997        C  0.19542595  0.64947447  0.08332055    -0.01220
C998        C  0.22247942  0.67650938  0.05634017     0.03750
C999        C  0.16854768  0.78886575  0.07364059     0.38400
C1000       C  0.20592053  0.60197275  0.08339699     0.38390
C1001       C  0.25790038  0.65506426  0.03124264     0.36820
C1002       C  0.09940997  0.72658686  0.09522729     0.36820
N1003       N  0.28590171  0.63631774  0.01255120    -0.38000
N1004       N  0.06229297  0.73744692  0.09449924    -0.38010
N1005       N  0.21716095  0.56497309  0.08047028    -0.37450
N1006       N  0.16058007  0.82683877  0.07413635    -0.37450
C1007       C  0.16849794  0.66143888  0.91391206    -0.04120
C1008       C  0.21516435  0.67281776  0.90777364    -0.01230
C1009       C  0.23712615  0.70131391  0.93859168     0.03750
C1010       C  0.21173505  0.72567675  0.96990162    -0.04120
C1011       C  0.16537563  0.71763997  0.96910821    -0.01220
C1012       C  0.15072503  0.67688634  0.95320880     0.03750
C1013       C  0.24381727  0.65380912  0.87437616     0.38400
C1014       C  0.13237277  0.74787533  0.98673746     0.38390
C1015       C  0.15004504  0.64196326  0.98552488     0.36820
C1016       C  0.28541459  0.70145907  0.93876417     0.36820
N1017       N  0.14944332  0.61066916  0.00762816    -0.38000
N1018       N  0.32368765  0.69737303  0.93570288    -0.38010
N1019       N  0.10472671  0.77177895  0.99944120    -0.37450
N1020       N  0.27062999  0.63985510  0.85076444    -0.37450
C1021       C  0.28030690  0.80158942  0.05294995    -0.04120
C1022       C  0.31366182  0.78050854  0.07820424    -0.01230
C1023       C  0.34875399  0.80598124  0.09603577     0.03750
C1024       C  0.34304649  0.85246943  0.10495864    -0.04120
C1025       C  0.30673764  0.87395279  0.08218795    -0.01220
C1026       C  0.27690499  0.84887016  0.05588960     0.03750
C1027       C  0.31570085  0.73240155  0.08344311     0.38400
C1028       C  0.29802645  0.92170914  0.08645828     0.38390
C1029       C  0.24186901  0.87229293  0.03225142     0.36820
C1030       C  0.39241976  0.78477859  0.09640191     0.36820
N1031       N  0.21413558  0.89208752  0.01423606    -0.38000
N1032       N  0.42636985  0.76610262  0.09535963    -0.38010
N1033       N  0.29120881  0.95982416  0.08890941    -0.37450
N1034       N  0.32058553  0.69462745  0.09046850    -0.37450
C1035       C  0.33222915  0.84990733  0.90734864    -0.04120
C1036       C  0.28467591  0.84313262  0.90476733    -0.01230
C1037       C  0.26151642  0.82093183  0.93866900     0.03750
C1038       C  0.28517197  0.79753833  0.97136200    -0.04120
C1039       C  0.33220446  0.79619882  0.96855413    -0.01220
C1040       C  0.35514697  0.82346806  0.93889281     0.03750
C1041       C  0.25912105  0.85215721  0.86546305     0.38400
C1042       C  0.35788236  0.76330092  0.99298210     0.38390
C1043       C  0.40308441  0.81914489  0.93800803     0.36820
C1044       C  0.21318217  0.82319228  0.93945008     0.36820
N1045       N  0.44093804  0.81235967  0.93761609    -0.38000
N1046       N  0.17468759  0.82638512  0.93893983    -0.38010
N1047       N  0.38000737  0.73625538  0.00940919    -0.37450
N1048       N  0.23750539  0.85799844  0.83464142    -0.37450
C1049       C  0.21877237  0.46262383  0.21527971    -0.04120
C1050       C  0.19377632  0.43032348  0.23785486    -0.01230
C1051       C  0.17268080  0.39537269  0.21478047     0.03750
C1052       C  0.16449954  0.39915129  0.16871198    -0.04120
C1053       C  0.19274597  0.42971268  0.14607827    -0.01220
C1054       C  0.22126790  0.45901155  0.16926706     0.03750
C1055       C  0.18603474  0.43437598  0.28428794     0.38400
C1056       C  0.19481861  0.42964560  0.09866976     0.38390
C1057       C  0.25354705  0.48572678  0.14565194     0.36820
C1058       C  0.16791730  0.35325418  0.23788429     0.36820
N1059       N  0.28019081  0.50597020  0.12695080    -0.38000
N1060       N  0.16575721  0.31963032  0.25651037    -0.38010
N1061       N  0.19661138  0.42973387  0.06094594    -0.37450
N1062       N  0.17798252  0.43775551  0.32105897    -0.37450
C1063       C  0.21297972  0.54638243  0.21921569    -0.04120
C1064       C  0.23362370  0.58432925  0.20038079    -0.01230
C1065       C  0.20619307  0.61821939  0.18116173     0.03750
C1066       C  0.16188414  0.60670518  0.16584532    -0.04120
C1067       C  0.14869261  0.56278026  0.17588915    -0.01220
C1068       C  0.16690585  0.54320604  0.21282787     0.03750
C1069       C  0.28153613  0.58773423  0.19579502     0.38400
C1070       C  0.14610873  0.53269214  0.13928538     0.38390
C1071       C  0.13837534  0.52406396  0.24553500     0.36820
C1072       C  0.22754443  0.66065432  0.17268719     0.36820
N1073       N  0.11585875  0.51105022  0.27333512    -0.38000
N1074       N  0.24840271  0.69234044  0.16563792    -0.38010
N1075       N  0.14403123  0.51157334  0.10769412    -0.37450
N1076       N  0.31929804  0.59270126  0.18973829    -0.37450
C1077       C  0.15471145  0.17007915  0.59699860    -0.04120
C1078       C  0.19189446  0.19437814  0.61302844    -0.01230
C1079       C  0.22371011  0.21095590  0.58329087     0.03750
C1080       C  0.21068015  0.22059584  0.53954310    -0.04120
C1081       C  0.16502743  0.21369664  0.52970388    -0.01220
C1082       C  0.13895868  0.18409861  0.55502579     0.03750
C1083       C  0.19837161  0.20107481  0.65962745     0.38400
C1084       C  0.14342754  0.24279018  0.49827915     0.38390
C1085       C  0.09241755  0.17773386  0.54326168     0.36820
C1086       C  0.26903202  0.20902544  0.59857998     0.36820
N1087       N  0.05481491  0.17185424  0.53682250    -0.38000
N1088       N  0.30292623  0.20349047  0.61590578    -0.38010
N1089       N  0.12599294  0.26752757  0.47468847    -0.37450
N1090       N  0.20323893  0.20664957  0.69671223    -0.37450
C1091       C  0.23135183  0.20808472  0.45900250    -0.04120
C1092       C  0.21125104  0.22739777  0.42214025    -0.01230
C1093       C  0.17309492  0.20778156  0.40312309     0.03750
C1094       C  0.16286533  0.16120796  0.41015621    -0.04120
C1095       C  0.19432183  0.13823031  0.43909584    -0.01220
C1096       C  0.22830002  0.16182010  0.46169975     0.03750
C1097       C  0.24075095  0.24471061  0.38921404     0.38400
C1098       C  0.19390268  0.09073302  0.44838668     0.38390
C1099       C  0.26413012  0.13879577  0.48447810     0.36820
C1100       C  0.15092409  0.23669836  0.37184975     0.36820
N1101       N  0.29411737  0.12089218  0.50083585    -0.38000
N1102       N  0.13573449  0.26217179  0.34748589    -0.38010
N1103       N  0.19517791  0.05337918  0.45854653    -0.37450
N1104       N  0.26121923  0.25650280  0.35952632    -0.37450
C1105       C  0.60199151  0.16400344  0.16340289    -0.04120
C1106       C  0.59123697  0.21008331  0.15248304    -0.01230
C1107       C  0.55975402  0.23545780  0.17702216     0.03750
C1108       C  0.54251368  0.21863958  0.21607847    -0.04120
C1109       C  0.55450796  0.17493395  0.22827672    -0.01220
C1110       C  0.57633191  0.14606937  0.19862686     0.03750
C1111       C  0.61030401  0.23437984  0.11665121     0.38400
C1112       C  0.55257604  0.16221907  0.27376910     0.38390
C1113       C  0.57409062  0.09845057  0.20759185     0.36820
C1114       C  0.55049109  0.28193990  0.16553658     0.36820
N1115       N  0.57089259  0.06065661  0.21515577    -0.38000
N1116       N  0.54527489  0.31920872  0.15640327    -0.38010
N1117       N  0.55368165  0.15189518  0.31012658    -0.37450
N1118       N  0.62347679  0.25771193  0.08963076    -0.37450
C1119       C  0.39620990  0.16885470  0.17347605    -0.04120
C1120       C  0.42300217  0.14899162  0.20690152    -0.01230
C1121       C  0.44845837  0.17621439  0.23549621     0.03750
C1122       C  0.45962764  0.22086273  0.22389966    -0.04120
C1123       C  0.43317666  0.24024072  0.19067972    -0.01220
C1124       C  0.39663601  0.21685465  0.17330903     0.03750
C1125       C  0.42079742  0.10136229  0.21617493     0.38400
C1126       C  0.44377067  0.28216702  0.17002056     0.38390
C1127       C  0.35740624  0.24376207  0.16389278     0.36820
C1128       C  0.45525409  0.15965241  0.27921281     0.36820
N1129       N  0.32645031  0.26625294  0.15789717    -0.38000
N1130       N  0.45718867  0.14360721  0.31350333    -0.38010
N1131       N  0.44948085  0.31400377  0.14940425    -0.37450
N1132       N  0.41986571  0.06338061  0.22345279    -0.37450
C1133       C  0.03970061  0.28837774  0.22715064    -0.04120
C1134       C  0.05467476  0.27304248  0.18634271    -0.01230
C1135       C  0.09286137  0.29271974  0.16828317     0.03750
C1136       C  0.09921245  0.34012216  0.17329689    -0.04120
C1137       C  0.07644308  0.35837649  0.21058389    -0.01220
C1138       C  0.05823671  0.32871268  0.24169560     0.03750
C1139       C  0.03026310  0.24034916  0.16106612     0.38400
C1140       C  0.07357477  0.40539642  0.22075760     0.38390
C1141       C  0.06434980  0.33693405  0.28784454     0.36820
C1142       C  0.12884324  0.26195904  0.15810159     0.36820
N1143       N  0.07066472  0.34383680  0.32449989    -0.38000
N1144       N  0.15747602  0.23679403  0.15107904    -0.38010
N1145       N  0.06866395  0.44221547  0.23154309    -0.37450
N1146       N  0.01108581  0.21441969  0.14018831    -0.37450
C1147       C  0.95443838  0.21257278  0.29148050    -0.04120
C1148       C  0.92084808  0.23399255  0.31631299    -0.01230
C1149       C  0.88779006  0.20863606  0.33774963     0.03750
C1150       C  0.89319279  0.16111499  0.34425325    -0.04120
C1151       C  0.92401298  0.13981144  0.31517655    -0.01220
C1152       C  0.95219473  0.16525008  0.28780928     0.03750
C1153       C  0.91907648  0.28206721  0.32185116     0.38400
C1154       C  0.92443639  0.09156881  0.30923787     0.38390
C1155       C  0.97629312  0.14201478  0.25343819     0.36820
C1156       C  0.84569399  0.23171295  0.34601276     0.36820
N1157       N  0.99309810  0.12165751  0.22571502    -0.38000
N1158       N  0.81259078  0.25113872  0.35139002    -0.38010
N1159       N  0.92620284  0.05318627  0.30416999    -0.37450
N1160       N  0.91418768  0.31972610  0.32953886    -0.37450
C1161       C  0.89831867  0.34845459  0.17275908    -0.04120
C1162       C  0.89021515  0.30191659  0.18203100    -0.01230
C1163       C  0.92301057  0.27547171  0.20313348     0.03750
C1164       C  0.95622433  0.29617923  0.22866322    -0.04120
C1165       C  0.95355964  0.34343416  0.23280967    -0.01220
C1166       C  0.92803768  0.36941021  0.20326878     0.03750
C1167       C  0.84638885  0.28195836  0.17670950     0.38400
C1168       C  0.97154736  0.36586240  0.27102209     0.38390
C1169       C  0.92625643  0.41719731  0.21236687     0.36820
C1170       C  0.92171585  0.22748806  0.19683748     0.36820
N1171       N  0.92524142  0.45418839  0.22391741    -0.38000
N1172       N  0.91882626  0.18953790  0.18966805    -0.38010
N1173       N  0.98277246  0.38616117  0.30132505    -0.37450
N1174       N  0.81164571  0.26547229  0.17375266    -0.37450
C1175       C  0.03763505  0.21964290  0.29900407    -0.04120
C1176       C  0.03946889  0.22554353  0.34483718    -0.01230
C1177       C  0.06559628  0.19669542  0.37139207     0.03750
C1178       C  0.09367246  0.16312008  0.35275715    -0.04120
C1179       C  0.08430563  0.15307818  0.30849741    -0.01220
C1180       C  0.06430929  0.18500729  0.28107705     0.03750
C1181       C  0.01559749  0.26245952  0.36522268     0.38400
C1182       C  0.08402511  0.10700955  0.29348388     0.38390
C1183       C  0.07153255  0.17920088  0.23488831     0.36820
C1184       C  0.06150624  0.20113646  0.41793702     0.36820
N1185       N  0.08088347  0.17042730  0.19925864    -0.38000
N1186       N  0.05518629  0.20578156  0.45474041    -0.38010
N1187       N  0.08183355  0.07017325  0.28199125    -0.37450
N1188       N  0.99794806  0.29195185  0.38284385    -0.37450
C1189       C  0.28883340  0.96448868  0.22719810    -0.04120
C1190       C  0.33538144  0.96369260  0.23183635    -0.01230
C1191       C  0.36234187  0.93750038  0.20378552     0.03750
C1192       C  0.34343401  0.90459952  0.17488299    -0.04120
C1193       C  0.29615102  0.89729965  0.18140974    -0.01220
C1194       C  0.26912561  0.92998200  0.20258486     0.03750
C1195       C  0.35613421  0.99041571  0.26609121     0.38400
C1196       C  0.27292673  0.85723822  0.16735790     0.38390
C1197       C  0.22119321  0.92823783  0.19654329     0.36820
C1198       C  0.40896584  0.94869185  0.20583755     0.36820
N1199       N  0.18341340  0.92508805  0.18938467    -0.38000
N1200       N  0.44414526  0.96340814  0.21176132    -0.38010
N1201       N  0.25171078  0.82692288  0.15631121    -0.37450
N1202       N  0.37386201  0.00978038  0.29385215    -0.37450
C1203       C  0.21708253  0.04659400  0.30126024    -0.04120
C1204       C  0.20024405  0.08721871  0.28334066    -0.01230
C1205       C  0.18092645  0.11970684  0.31193100     0.03750
C1206       C  0.15876955  0.10435681  0.35079731    -0.04120
C1207       C  0.17013630  0.06023894  0.36278136    -0.01220
C1208       C  0.20870137  0.04082647  0.34607196     0.03750
C1209       C  0.19398994  0.09300805  0.23700136     0.38400
C1210       C  0.13542816  0.02906807  0.37107952     0.38390
C1211       C  0.23434533  0.01114965  0.37375064     0.36820
C1212       C  0.18114975  0.16596234  0.29804789     0.36820
N1213       N  0.25460039  0.98865690  0.39737061    -0.38000
N1214       N  0.18270929  0.20214664  0.28466828    -0.38010
N1215       N  0.10639699  0.00426428  0.37422707    -0.37450
N1216       N  0.18641584  0.09797127  0.20030785    -0.37450
C1217       C  0.33113239  0.11038612  0.16945732    -0.04120
C1218       C  0.30284249  0.07821450  0.14870186    -0.01230
C1219       C  0.27614420  0.04919785  0.17376855     0.03750
C1220       C  0.28042221  0.04756377  0.21960186    -0.04120
C1221       C  0.30345864  0.08264689  0.24051632    -0.01220
C1222       C  0.32328622  0.11670883  0.21540305     0.03750
C1223       C  0.29602334  0.07765495  0.10182982     0.38400
C1224       C  0.30718997  0.08472641  0.28765801     0.38390
C1225       C  0.32913302  0.15978466  0.23677772     0.36820
C1226       C  0.24113945  0.02377539  0.15239709     0.36820
N1227       N  0.33261147  0.19385123  0.25457540    -0.38000
N1228       N  0.21255811  0.00554703  0.13428836    -0.38010
N1229       N  0.31072409  0.08719909  0.32520126    -0.37450
N1230       N  0.28903496  0.07654795  0.06468247    -0.37450
C1231       C  0.15656754  0.90196106  0.33974716    -0.04120
C1232       C  0.20448742  0.89733352  0.33620715    -0.01230
C1233       C  0.23050182  0.92979269  0.31435771     0.03750
C1234       C  0.20993316  0.96355430  0.28946904    -0.04120
C1235       C  0.16337050  0.96253514  0.28458833    -0.01220
C1236       C  0.13679666  0.93463196  0.31096353     0.03750
C1237       C  0.22912981  0.85780470  0.34937620     0.38400
C1238       C  0.14280355  0.99019692  0.25104533     0.38390
C1239       C  0.08893665  0.93916572  0.30499365     0.36820
C1240       C  0.27859459  0.92910058  0.32031240     0.36820
N1241       N  0.05143767  0.94487396  0.29767919    -0.38000
N1242       N  0.31645928  0.92647959  0.32736819    -0.38010
N1243       N  0.12676633  0.01067562  0.22305298    -0.37450
N1244       N  0.25177374  0.82741495  0.35752105    -0.37450
C1245       C  0.22044371  0.29446918  0.96325088    -0.04120
C1246       C  0.19377826  0.27191266  0.93223427    -0.01230
C1247       C  0.17007387  0.29617445  0.90017098     0.03750
C1248       C  0.16558315  0.34392167  0.90342581    -0.04120
C1249       C  0.19389887  0.36582484  0.93457218    -0.01220
C1250       C  0.22388812  0.34122479  0.96046833     0.03750
C1251       C  0.18598887  0.22409995  0.93440970     0.38400
C1252       C  0.19439834  0.41407870  0.94042767     0.38390
C1253       C  0.25818055  0.36472705  0.98493086     0.36820
C1254       C  0.15444785  0.27016090  0.86324987     0.36820
N1255       N  0.28548095  0.38495881  0.00289592    -0.38000
N1256       N  0.14393352  0.24683803  0.83484435    -0.38010
N1257       N  0.19719071  0.45187947  0.94829233    -0.37450
N1258       N  0.17529945  0.18687692  0.93372593    -0.37450
C1259       C  0.33984408  0.17086426  0.10911464    -0.04120
C1260       C  0.29272202  0.17998708  0.11069408    -0.01230
C1261       C  0.27112199  0.20139253  0.07567007     0.03750
C1262       C  0.29597558  0.22715458  0.04593368    -0.04120
C1263       C  0.34310732  0.22742285  0.05115993    -0.01220
C1264       C  0.36462948  0.19552043  0.07769282     0.03750
C1265       C  0.26624361  0.17517007  0.14988900     0.38400
C1266       C  0.37016296  0.26375975  0.03488106     0.38390
C1267       C  0.41313235  0.19247200  0.07548109     0.36820
C1268       C  0.22355546  0.19453114  0.07056904     0.36820
N1269       N  0.45167711  0.19049728  0.07344071    -0.38000
N1270       N  0.18586855  0.18690490  0.06734262    -0.38010
N1271       N  0.39409337  0.29241350  0.02526746    -0.37450
N1272       N  0.24379450  0.17359662  0.18051310    -0.37450
C1273       C  0.21006962  0.28972442  0.04427641    -0.04120
C1274       C  0.23078310  0.31190535  0.07941036    -0.01230
C1275       C  0.20525710  0.32895743  0.11437357     0.03750
C1276       C  0.15800200  0.33704765  0.10992644    -0.04120
C1277       C  0.13693083  0.31212779  0.07568646    -0.01220
C1278       C  0.16250899  0.28779987  0.04469310     0.03750
C1279       C  0.27819668  0.32110871  0.07945044     0.38400
C1280       C  0.08865667  0.30598208  0.07448687     0.38390
C1281       C  0.13802723  0.25910598  0.01498863     0.36820
C1282       C  0.22883209  0.33226940  0.15560376     0.36820
N1283       N  0.11455631  0.23697772  0.99415315    -0.38000
N1284       N  0.25003534  0.33349039  0.18717630    -0.38010
N1285       N  0.05044493  0.30060464  0.07268970    -0.37450
N1286       N  0.31544746  0.33094601  0.08117699    -0.37450
C1287       C  0.29419264  0.22843638  0.96429748    -0.04120
C1288       C  0.27891015  0.18697079  0.94918601    -0.01230
C1289       C  0.29382612  0.17245774  0.90876522     0.03750
C1290       C  0.34010533  0.17532628  0.90079860    -0.04120
C1291       C  0.36107979  0.21287457  0.92157963    -0.01220
C1292       C  0.33404358  0.24407480  0.94495567     0.03750
C1293       C  0.25371440  0.15639505  0.97579472     0.38400
C1294       C  0.40880610  0.21961612  0.91983113     0.38390
C1295       C  0.34464996  0.29121454  0.94453573     0.36820
C1296       C  0.26305342  0.18202288  0.87350272     0.36820
N1297       N  0.35322208  0.32894572  0.94291583    -0.38000
N1298       N  0.23811399  0.18972918  0.84559369    -0.38010
N1299       N  0.44707612  0.22451969  0.91898686    -0.37450
N1300       N  0.23368308  0.13086326  0.99616755    -0.37450
C1301       C  0.53484936  0.71993198  0.72584009    -0.04120
C1302       C  0.54346882  0.72599594  0.68125578    -0.01230
C1303       C  0.58308899  0.70831424  0.66480398     0.03750
C1304       C  0.59558637  0.66471595  0.67712500    -0.04120
C1305       C  0.58971189  0.65920704  0.72437379    -0.01220
C1306       C  0.56274104  0.69007006  0.74848722     0.03750
C1307       C  0.51859051  0.75768976  0.65505562     0.38400
C1308       C  0.60920916  0.62528899  0.75201187     0.38390
C1309       C  0.56217693  0.68859010  0.79590430     0.36820
C1310       C  0.61891878  0.74068625  0.66360777     0.36820
N1311       N  0.56416093  0.68480920  0.83339871    -0.38000
N1312       N  0.64757395  0.76650402  0.66349658    -0.38010
N1313       N  0.62099137  0.60051530  0.77869841    -0.37450
N1314       N  0.50026325  0.78416677  0.63399382    -0.37450
C1315       C  0.64968548  0.59852941  0.67128950    -0.04120
C1316       C  0.68896754  0.61459903  0.69371498    -0.01230
C1317       C  0.71222479  0.58724687  0.72416120     0.03750
C1318       C  0.70410287  0.54064583  0.72424518    -0.04120
C1319       C  0.65952529  0.53023660  0.71765827    -0.01220
C1320       C  0.63200556  0.55750173  0.69057026     0.03750
C1321       C  0.70077083  0.66182116  0.69362042     0.38400
C1322       C  0.64047115  0.50399648  0.75267267     0.38390
C1323       C  0.58461728  0.54979536  0.69714210     0.36820
C1324       C  0.71835120  0.60913563  0.76613138     0.36820
N1325       N  0.54741956  0.54274661  0.70470085    -0.38000
N1326       N  0.72120369  0.62776068  0.79922468    -0.38010
N1327       N  0.62564615  0.48716605  0.78330750    -0.37450
N1328       N  0.71169352  0.69893836  0.69488706    -0.37450
C1329       C  0.65059587  0.66255110  0.60808143    -0.04120
C1330       C  0.69650878  0.65314972  0.59973172    -0.01230
C1331       C  0.72511399  0.68472998  0.58000637     0.03750
C1332       C  0.70738232  0.71883461  0.55354153    -0.04120
C1333       C  0.66069248  0.72542419  0.55465128    -0.01220
C1334       C  0.63261956  0.69837436  0.58091030     0.03750
C1335       C  0.71292963  0.60792380  0.60154899     0.38400
C1336       C  0.64071707  0.76158024  0.52943015     0.38390
C1337       C  0.58490390  0.70728242  0.57586999     0.36820
C1338       C  0.77288554  0.67957750  0.58528493     0.36820
N1339       N  0.54737991  0.71428699  0.56968013    -0.38000
N1340       N  0.81077221  0.67455026  0.59088794    -0.38010
N1341       N  0.62297945  0.79042458  0.51099879    -0.37450
N1342       N  0.72654704  0.57176553  0.60135367    -0.37450
C1343       C  0.39677401  0.34873638  0.66608368    -0.04120
C1344       C  0.43979547  0.36308751  0.68077005    -0.01230
C1345       C  0.46028665  0.34061065  0.71512704     0.03750
C1346       C  0.45665452  0.29421433  0.71711634    -0.04120
C1347       C  0.41775914  0.27569142  0.69842458    -0.01220
C1348       C  0.38440024  0.30512921  0.68194124     0.03750
C1349       C  0.46473066  0.40062300  0.66517320     0.38400
C1350       C  0.41167036  0.22800539  0.69293714     0.38390
C1351       C  0.33929210  0.28862500  0.68226042     0.36820
C1352       C  0.48196963  0.36556971  0.74977796     0.36820
N1353       N  0.30495719  0.27156997  0.68588190    -0.38000
N1354       N  0.49720781  0.38623534  0.77807688    -0.38010
N1355       N  0.40449686  0.19049613  0.68658504    -0.37450
N1356       N  0.48661741  0.43146032  0.65828797    -0.37450
C1357       C  0.33216727  0.40536341  0.66861916    -0.04120
C1358       C  0.34878445  0.43918463  0.69811577    -0.01230
C1359       C  0.32056077  0.47223264  0.71630898     0.03750
C1360       C  0.27441472  0.47077737  0.70977093    -0.04120
C1361       C  0.25615294  0.43353305  0.68841435    -0.01220
C1362       C  0.28436725  0.39935427  0.67131336     0.03750
C1363       C  0.39309107  0.43987114  0.71630703     0.38400
C1364       C  0.20815906  0.43072370  0.68263029     0.38390
C1365       C  0.26205605  0.35785445  0.66052919     0.36820
C1366       C  0.33884526  0.50638764  0.74557811     0.36820
N1367       N  0.24061736  0.32678238  0.65225270    -0.38000
N1368       N  0.35344836  0.53252465  0.76957102    -0.38010
N1369       N  0.17007288  0.42781194  0.67712635    -0.37450
N1370       N  0.42563210  0.44601488  0.73576840    -0.37450
C1371       C  0.34025220  0.34754875  0.60121539    -0.04120
C1372       C  0.35978830  0.30737086  0.58434180    -0.01230
C1373       C  0.33498958  0.27797119  0.55769371     0.03750
C1374       C  0.29123448  0.28934300  0.54353537    -0.04120
C1375       C  0.27479305  0.33213133  0.55522444    -0.01220
C1376       C  0.30221808  0.36287573  0.57776582     0.03750
C1377       C  0.40756244  0.29957062  0.58712130     0.38400
C1378       C  0.22836904  0.34351489  0.54832818     0.38390
C1379       C  0.29236785  0.41033028  0.57460001     0.36820
C1380       C  0.35491087  0.23487004  0.54709026     0.36820
N1381       N  0.28556075  0.44833653  0.57111162    -0.38000
N1382       N  0.37171244  0.20022678  0.54199100    -0.38010
N1383       N  0.19097022  0.35292758  0.54536275    -0.37450
N1384       N  0.44575524  0.29391280  0.58791400    -0.37450
C1385       C  0.65392001  0.41380535  0.33977899    -0.04120
C1386       C  0.69896554  0.40522625  0.32422992    -0.01230
C1387       C  0.71546733  0.42611591  0.28623263     0.03750
C1388       C  0.69802171  0.46750274  0.27363813    -0.04120
C1389       C  0.65239298  0.47135607  0.27925616    -0.01220
C1390       C  0.63009319  0.44661098  0.31244812     0.03750
C1391       C  0.72953423  0.37178365  0.34058307     0.38400
C1392       C  0.62860917  0.49253010  0.24358099     0.38390
C1393       C  0.58289890  0.45672423  0.31503513     0.36820
C1394       C  0.72167244  0.39470071  0.25052883     0.36820
N1395       N  0.54545578  0.46672141  0.31520623    -0.38000
N1396       N  0.72521977  0.36918497  0.22220858    -0.38010
N1397       N  0.61011329  0.50807865  0.21404058    -0.37450
N1398       N  0.75713435  0.34663438  0.35086526    -0.37450
C1399       C  0.71663501  0.29393011  0.45846374    -0.04120
C1400       C  0.67577524  0.27789306  0.44096584    -0.01230
C1401       C  0.64570086  0.30652789  0.41813738     0.03750
C1402       C  0.65821450  0.35078238  0.40527957    -0.04120
C1403       C  0.69672287  0.36726626  0.42680780    -0.01220
C1404       C  0.72805467  0.33797137  0.44664334     0.03750
C1405       C  0.66536362  0.23078828  0.44035986     0.38400
C1406       C  0.70443624  0.41443158  0.43188774     0.38390
C1407       C  0.77380915  0.35265532  0.45012223     0.36820
C1408       C  0.60035808  0.29052980  0.41189485     0.36820
N1409       N  0.80978490  0.36650188  0.45042579    -0.38000
N1410       N  0.56441802  0.27714808  0.40768261    -0.38010
N1411       N  0.71340442  0.45094097  0.44043971    -0.37450
N1412       N  0.65270874  0.19449220  0.43591259    -0.37450
C1413       C  0.60060411  0.35041871  0.34116027    -0.04120
C1414       C  0.55751114  0.36371145  0.32798831    -0.01230
C1415       C  0.54375124  0.35301028  0.28573617     0.03750
C1416       C  0.54962514  0.30863778  0.27268156    -0.04120
C1417       C  0.59321425  0.29223633  0.28226802    -0.01220
C1418       C  0.61929977  0.31403562  0.31553778     0.03750
C1419       C  0.52296600  0.36603375  0.36023762     0.38400
C1420       C  0.61885963  0.27148196  0.24802389     0.38390
C1421       C  0.66327080  0.29551023  0.32377763     0.36820
C1422       C  0.55586489  0.38428984  0.25200700     0.36820
N1423       N  0.69698474  0.27720362  0.32910663    -0.38000
N1424       N  0.56566071  0.40847962  0.22421083    -0.38010
N1425       N  0.64302598  0.25896432  0.22119182    -0.37450
N1426       N  0.49535877  0.36623044  0.38646822    -0.37450
C1427       C  0.40234887  0.66968787  0.33851069    -0.04120
C1428       C  0.38967049  0.71184211  0.31882183    -0.01230
C1429       C  0.42378994  0.73899955  0.29995546     0.03750
C1430       C  0.46186152  0.71761798  0.28138542    -0.04120
C1431       C  0.46273576  0.67122009  0.28659026    -0.01220
C1432       C  0.44416572  0.65388697  0.32408585     0.03750
C1433       C  0.34497437  0.73012316  0.31929494     0.38400
C1434       C  0.47091963  0.64144007  0.25037974     0.38390
C1435       C  0.47581900  0.63547054  0.35353854     0.36820
C1436       C  0.41994939  0.78697207  0.30421494     0.36820
N1437       N  0.50221295  0.62254455  0.37763705    -0.38000
N1438       N  0.41426344  0.82482426  0.31019166    -0.38010
N1439       N  0.47571674  0.61685962  0.22144160    -0.37450
N1440       N  0.31073867  0.74815582  0.31788799    -0.37450
C1441       C  0.34301501  0.66585152  0.40204122    -0.04120
C1442       C  0.35071360  0.71160427  0.41253994    -0.01230
C1443       C  0.31741739  0.73741859  0.43324490     0.03750
C1444       C  0.28514053  0.71603621  0.45906812    -0.04120
C1445       C  0.28244884  0.66848627  0.45652228    -0.01220
C1446       C  0.31052544  0.64383571  0.42814563     0.03750
C1447       C  0.39556985  0.72953444  0.41225244     0.38400
C1448       C  0.25012017  0.64379814  0.48197307     0.38390
C1449       C  0.30759046  0.59526974  0.42820251     0.36820
C1450       C  0.31978464  0.78584688  0.43121346     0.36820
N1451       N  0.30597367  0.55658502  0.42938448    -0.38000
N1452       N  0.32268606  0.82443899  0.42913875    -0.38010
N1453       N  0.22470340  0.62165451  0.50027040    -0.37450
N1454       N  0.43147301  0.74359278  0.41310184    -0.37450
C1455       C  0.34275215  0.61039881  0.33376949    -0.04120
C1456       C  0.36280299  0.57822430  0.30427308    -0.01230
C1457       C  0.33640445  0.54925371  0.27884582     0.03750
C1458       C  0.29003390  0.54782555  0.28428405    -0.04120
C1459       C  0.26917412  0.58272466  0.30754300    -0.01220
C1460       C  0.29521748  0.61591729  0.32856870     0.03750
C1461       C  0.41030343  0.57014696  0.30003126     0.38400
C1462       C  0.22087941  0.58455759  0.31095489     0.38390
C1463       C  0.27153132  0.65608276  0.34161961     0.36820
C1464       C  0.35734452  0.52075370  0.24591251     0.36820
N1465       N  0.25025330  0.68702962  0.35112494    -0.38000
N1466       N  0.37503391  0.49975977  0.21918678    -0.38010
N1467       N  0.18250706  0.58703567  0.31459928    -0.37450
N1468       N  0.44709290  0.55865263  0.29618644    -0.37450
C1469       C  0.65922991  0.66535667  0.41545262    -0.04120
C1470       C  0.66831905  0.71249297  0.40864247    -0.01230
C1471       C  0.69273033  0.73741499  0.44011245     0.03750
C1472       C  0.71849916  0.71512807  0.47208596    -0.04120
C1473       C  0.71927246  0.66813619  0.47021763    -0.01220
C1474       C  0.68416729  0.64522668  0.45008749     0.03750
C1475       C  0.65381579  0.73787210  0.37073548     0.38400
C1476       C  0.75424557  0.64242913  0.49141485     0.38390
C1477       C  0.66928893  0.60629074  0.47376664     0.36820
C1478       C  0.68886637  0.78576376  0.43892217     0.36820
N1479       N  0.65833869  0.57762934  0.49670148    -0.38000
N1480       N  0.68203058  0.82368162  0.43447730    -0.38010
N1481       N  0.78205931  0.62044031  0.50671259    -0.37450
N1482       N  0.64373335  0.76027731  0.34149374    -0.37450
C1483       C  0.54391109  0.71867641  0.29573551    -0.04120
C1484       C  0.56474985  0.67892129  0.28067042    -0.01230
C1485       C  0.58800063  0.65029408  0.30968839     0.03750
C1486       C  0.59661200  0.66256327  0.35376031    -0.04120
C1487       C  0.56939278  0.69872104  0.37001830    -0.01220
C1488       C  0.54591257  0.72768500  0.34099085     0.03750
C1489       C  0.56253755  0.66698606  0.23459769     0.38400
C1490       C  0.56612419  0.70781776  0.41645070     0.38390
C1491       C  0.52363706  0.76736779  0.35784074     0.36820
C1492       C  0.59255597  0.60436994  0.29651218     0.36820
N1493       N  0.50636565  0.79928700  0.37132219    -0.38000
N1494       N  0.59387770  0.56728245  0.28616749    -0.38010
N1495       N  0.56307514  0.71573440  0.45332107    -0.37450
N1496       N  0.56199243  0.65798712  0.19783177    -0.37450
C1497       C  0.66547040  0.60502163  0.35799809    -0.04120
C1498       C  0.68841478  0.62291132  0.32147253    -0.01230
C1499       C  0.70306918  0.59429424  0.28743173     0.03750
C1500       C  0.71449663  0.54881116  0.29650748    -0.04120
C1501       C  0.71001750  0.53704065  0.34081345    -0.01220
C1502       C  0.67967368  0.56015411  0.36841466     0.03750
C1503       C  0.70435506  0.66844253  0.32025226     0.38400
C1504       C  0.74034639  0.50438573  0.35908900     0.38390
C1505       C  0.66367881  0.53513171  0.40529586     0.36820
C1506       C  0.70065038  0.61465595  0.24526146     0.36820
N1507       N  0.64891421  0.51347165  0.43295383    -0.38000
N1508       N  0.69512460  0.63754569  0.21533077    -0.38010
N1509       N  0.76629736  0.48029295  0.37430701    -0.37450
N1510       N  0.72166865  0.70282098  0.31666636    -0.37450
C1511       C  0.33732005  0.40304955  0.34490472    -0.04120
C1512       C  0.32519740  0.39445595  0.30026447    -0.01230
C1513       C  0.30491390  0.42804661  0.27468850     0.03750
C1514       C  0.28376696  0.46501075  0.29497616    -0.04120
C1515       C  0.28477060  0.46691843  0.34123933    -0.01220
C1516       C  0.31414031  0.43928244  0.36555909     0.03750
C1517       C  0.32819299  0.35001461  0.28091202     0.38400
C1518       C  0.25309202  0.49514879  0.36437667     0.38390
C1519       C  0.31568731  0.44521562  0.41261195     0.36820
C1520       C  0.30907071  0.42425023  0.22778830     0.36820
N1521       N  0.31646303  0.44996632  0.45010256    -0.38000
N1522       N  0.31460168  0.41935660  0.19072321    -0.38010
N1523       N  0.22715788  0.51607064  0.38373419    -0.37450
N1524       N  0.32941382  0.31510905  0.26437099    -0.37450
C1525       C  0.34148520  0.33804000  0.40106775    -0.04120
C1526       C  0.36235601  0.30370575  0.42710035    -0.01230
C1527       C  0.33582692  0.27328996  0.45010591     0.03750
C1528       C  0.29285480  0.28585907  0.46301192    -0.04120
C1529       C  0.27196945  0.32148379  0.44104231    -0.01220
C1530       C  0.29359691  0.34092847  0.40510485     0.03750
C1531       C  0.41024870  0.29568499  0.42877343     0.38400
C1532       C  0.22529951  0.33207038  0.44881833     0.38390
C1533       C  0.26405294  0.35462559  0.36999386     0.36820
C1534       C  0.34887255  0.22655888  0.45128824     0.36820
N1535       N  0.23871624  0.36334741  0.34275915    -0.38000
N1536       N  0.35919347  0.18915047  0.44986104    -0.38010
N1537       N  0.18791062  0.34120435  0.45242205    -0.37450
N1538       N  0.44818492  0.28876688  0.43167734    -0.37450
C1539       C  0.46493467  0.30184640  0.28033873    -0.04120
C1540       C  0.44600053  0.28009162  0.31604401    -0.01230
C1541       C  0.40756921  0.29782273  0.33525386     0.03750
C1542       C  0.40168675  0.34552019  0.33782163    -0.04120
C1543       C  0.42525089  0.36955606  0.30452637    -0.01220
C1544       C  0.44924856  0.34594046  0.27173089     0.03750
C1545       C  0.46989939  0.24512391  0.33892220     0.38400
C1546       C  0.42368807  0.41797333  0.30133843     0.38390
C1547       C  0.45997268  0.36890271  0.23157883     0.36820
C1548       C  0.37326872  0.26504816  0.34279851     0.36820
N1549       N  0.46734739  0.38951368  0.20049713    -0.38000
N1550       N  0.34858073  0.23583057  0.34742377    -0.38010
N1551       N  0.42326721  0.45658274  0.29810862    -0.37450
N1552       N  0.48992605  0.21917953  0.35909364    -0.37450
C1553       C  0.66003807  0.40817674  0.65686113    -0.04120
C1554       C  0.68447320  0.38894252  0.69263483    -0.01230
C1555       C  0.71492770  0.41512739  0.71844830     0.03750
C1556       C  0.72688970  0.45922070  0.70574487    -0.04120
C1557       C  0.71720837  0.46823190  0.66236302    -0.01220
C1558       C  0.67872887  0.45043501  0.64244008     0.03750
C1559       C  0.68123872  0.34169499  0.70304863     0.38400
C1560       C  0.75278928  0.48651609  0.63632262     0.38390
C1561       C  0.65860846  0.48095393  0.61157426     0.36820
C1562       C  0.74387330  0.39010671  0.74667958     0.36820
N1563       N  0.64359863  0.50757838  0.58826005    -0.38000
N1564       N  0.76558892  0.36618605  0.76735619    -0.38010
N1565       N  0.78284750  0.49854590  0.61584546    -0.37450
N1566       N  0.68131966  0.30489918  0.71482391    -0.37450
C1567       C  0.59062422  0.34874144  0.65545510    -0.04120
C1568       C  0.56245573  0.31511774  0.63602072    -0.01230
C1569       C  0.53964972  0.28326291  0.66239523     0.03750
C1570       C  0.53991186  0.28607682  0.70848959    -0.04120
C1571       C  0.56708728  0.31986717  0.72704196    -0.01220
C1572       C  0.58500479  0.35413777  0.70066852     0.03750
C1573       C  0.55785005  0.31059189  0.58910225     0.38400
C1574       C  0.57500501  0.32331404  0.77332257     0.38390
C1575       C  0.58323807  0.39902151  0.71750431     0.36820
C1576       C  0.51661007  0.24593032  0.64209906     0.36820
N1577       N  0.57708155  0.43499114  0.72993667    -0.38000
N1578       N  0.49878031  0.21577368  0.62603372    -0.38010
N1579       N  0.58434332  0.32975398  0.80939674    -0.37450
N1580       N  0.55346044  0.30570400  0.55185524    -0.37450
C1581       C  0.65531520  0.34896296  0.59786106    -0.04120
C1582       C  0.68677824  0.36915444  0.56922129    -0.01230
C1583       C  0.72146585  0.34320824  0.55129838     0.03750
C1584       C  0.71313290  0.29793915  0.54083468    -0.04120
C1585       C  0.67526323  0.27929368  0.56065203    -0.01220
C1586       C  0.65698831  0.30072738  0.59715375     0.03750
C1587       C  0.67801008  0.41079628  0.54716624     0.38400
C1588       C  0.64819806  0.24536859  0.54011849     0.38390
C1589       C  0.64516507  0.27079825  0.63225383     0.36820
C1590       C  0.76417992  0.36425550  0.54527701     0.36820
N1591       N  0.63652531  0.24454928  0.65864281    -0.38000
N1592       N  0.79758526  0.38334833  0.54284953    -0.38010
N1593       N  0.62388268  0.21913550  0.52578354    -0.37450
N1594       N  0.67137160  0.44238312  0.52630570    -0.37450
C1595       C  0.45200551  0.71550069  0.72660536    -0.04120
C1596       C  0.41932270  0.73855442  0.70232205    -0.01230
C1597       C  0.38610242  0.71457393  0.67958607     0.03750
C1598       C  0.39186751  0.66758643  0.66942060    -0.04120
C1599       C  0.42329234  0.64438784  0.69644528    -0.01220
C1600       C  0.45025834  0.66797293  0.72659916     0.03750
C1601       C  0.41980277  0.78681492  0.69784727     0.38400
C1602       C  0.42384563  0.59585867  0.69933630     0.38390
C1603       C  0.47414798  0.64243557  0.75955073     0.36820
C1604       C  0.34425828  0.73838822  0.67265420     0.36820
N1605       N  0.49130314  0.62031526  0.78569029    -0.38000
N1606       N  0.31144159  0.75853262  0.66824126    -0.38010
N1607       N  0.42551518  0.55730987  0.70330480    -0.37450
N1608       N  0.41809700  0.82499124  0.69156224    -0.37450
C1609       C  0.33398158  0.67539209  0.60641434    -0.04120
C1610       C  0.35690319  0.70689709  0.57969613    -0.01230
C1611       C  0.33426447  0.73062600  0.54680462     0.03750
C1612       C  0.28789022  0.72457197  0.54013855    -0.04120
C1613       C  0.26390007  0.69952389  0.57080622    -0.01220
C1614       C  0.28615499  0.67878921  0.60575116     0.03750
C1615       C  0.40416300  0.71622954  0.58593459     0.38400
C1616       C  0.21622564  0.69243143  0.56618550     0.38390
C1617       C  0.25823311  0.66927567  0.64303069     0.36820
C1618       C  0.35987223  0.76201479  0.52101922     0.36820
N1619       N  0.23261722  0.66430544  0.67074249    -0.38000
N1620       N  0.38279341  0.78718484  0.50327965    -0.38010
N1621       N  0.17859171  0.68418733  0.56410832    -0.37450
N1622       N  0.44192995  0.72306063  0.58957427    -0.37450
C1623       C  0.26031862  0.55352859  0.70172395    -0.04120
C1624       C  0.26802588  0.55120927  0.65631966    -0.01230
C1625       C  0.30161909  0.57720997  0.63592477     0.03750
C1626       C  0.32807677  0.60844556  0.66042903    -0.04120
C1627       C  0.31545127  0.61395748  0.70573682    -0.01220
C1628       C  0.27903056  0.59031528  0.72360071     0.03750
C1629       C  0.23790451  0.52455770  0.62999152     0.38400
C1630       C  0.33338014  0.64789310  0.73491500     0.38390
C1631       C  0.25089745  0.61671907  0.75192928     0.36820
C1632       C  0.30648828  0.57298515  0.58895756     0.36820
N1633       N  0.22921766  0.64242014  0.77073308    -0.38000
N1634       N  0.31003965  0.56932432  0.55151454    -0.38010
N1635       N  0.34511509  0.67413291  0.76028234    -0.37450
N1636       N  0.21305975  0.50442617  0.60878093    -0.37450
loop_ 
_geom_bond_atom_site_label_1 
_geom_bond_atom_site_label_2 
_geom_bond_distance 
_geom_bond_site_symmetry_2 
_ccdc_geom_bond_type 
C1           C52   1.595       .  S
C1         C1598   1.592       .  S
C1         C1609   1.580       .  S
C1         C1626   1.595       .  S
C2           C58   1.576       .  S
C2           N20   1.367       .  A
C2           C39   1.479       .  S
N3           N20   1.332       .  A
N3           N25   1.319       .  A
N3          Co40   2.126       .  S
C4           N29   1.358       .  A
C4           C42   1.497       .  S
C4           H49   1.080       .  S
H5           C46   1.076       .  S
C6           N30   1.345       .  A
C6           C10   1.468       .  S
C6           H35   1.077       .  S
Co7          N25   2.103       .  S
Co7          N15   2.115       .  S
Co7          N47   2.109       .  S
Co7          N23   2.096       .  S
Co7         Cl51   2.451       .  S
N8           C46   1.341       .  A
N8           N15   1.317       .  A
N8           Co9   2.107       .  S
Co9          N12   2.142       .  S
Co9          N29   2.149       .  S
Co9          N16   2.084       .  S
Co9         Cl51   2.461       .  S
C10          C60   1.562       .  S
C10          N48   1.368       .  A
N11          N18   1.317       .  A
N11          N41   1.329       .  A
N11         Co44   2.081       .  S
N12          N30   1.317       .  A
N12          N48   1.328       .  A
N13          C42   1.350       .  A
N13          N23   1.326       .  A
H14          C39   1.075       .  S
N15          N36   1.332       .  A
N16          N34   1.320       .  A
N16          N21   1.327       .  A
C17          C55   1.548       .  S
C17          N21   1.352       .  A
C17          C45   1.477       .  S
N18          C33   1.345       .  A
N18         Co40   2.146       .  S
C19          N47   1.343       .  A
C19          C22   1.478       .  S
C19          H53   1.077       .  S
C22          C57   1.556       .  S
C22          N43   1.358       .  A
N23          N29   1.316       .  A
N24          C50   1.343       .  A
N24          N26   1.309       .  A
N24         Co40   2.122       .  S
N25          C39   1.339       .  A
N26          N54   1.321       .  A
N26         Co44   2.076       .  S
H27          C50   1.076       .  S
H28          C45   1.081       .  S
N30         Co44   2.073       .  S
N31          N43   1.330       .  A
N31          N47   1.318       .  A
N31         Co40   2.092       .  S
C32          C56   1.580       .  S
C32          N36   1.362       .  A
C32          C46   1.487       .  S
C33          C52   1.501       .  S
C33          H37   1.076       .  S
N34          C45   1.346       .  A
N34         Co44   2.135       .  S
C38          C61   1.595       .  S
C38          N54   1.348       .  A
C38          C50   1.501       .  S
Co40        Cl51   2.452       .  S
N41          C52   1.355       .  A
C42          C59   1.587       .  S
Co44        Cl51   2.472       .  S
C55        C1553   1.619       .  S
C55        C1567   1.600       .  S
C55        C1581   1.584       .  S
C56        C1511   1.583       .  S
C56        C1525   1.585       .  S
C56        C1542   1.597       .  S
C57        C1469   1.590       .  S
C57        C1486   1.597       .  S
C57        C1497   1.603       .  S
C58        C1427   1.590       .  S
C58        C1441   1.576       .  S
C58        C1455   1.598       .  S
C59        C1385   1.629       .  S
C59        C1402   1.595       .  S
C59        C1413   1.588       .  S
C60        C1343   1.587       .  S
C60        C1357   1.613       .  S
C60        C1371   1.583       .  S
C61        C1304   1.624       .  S
C61        C1315   1.609       .  S
C61        C1329   1.631       .  S
C62          C63   1.388       .  D
C62        C1245   1.499   1_554  S
C62        C1273   1.526       .  S
C63        C1262   1.512       .  S
C63        C1287   1.500   1_554  S
C64          C65   1.377       .  D
C64        C1203   1.521       .  S
C64        C1234   1.509   1_545  S
C65        C1189   1.513   1_545  S
C65        C1220   1.507       .  S
C66          C67   1.385       .  D
C66        C1147   1.521       .  S
C66        C1175   1.515   1_655  S
C67        C1133   1.503   1_655  S
C67        C1164   1.518       .  S
C68          C69   1.396       .  D
C68        C1416   1.548       .  S
C68        C1539   1.517       .  S
C69        C1108   1.498       .  S
C69        C1122   1.530       .  S
C70          C71   1.379       .  D
C70        C1080   1.532       .  S
C70        C1091   1.536       .  S
C71        C1374   1.508       .  S
C71        C1528   1.489       .  S
C72          C73   1.379       .  D
C72        C1049   1.516       .  S
C72        C1063   1.511       .  S
C73        C1458   1.502       .  S
C73        C1514   1.519       .  S
C74          C75   1.381       .  D
C74        C1021   1.514       .  S
C74        C1038   1.513   1_554  S
C75         C993   1.514       .  S
C75        C1010   1.518   1_554  S
C76          C77   1.395       .  D
C76         C965   1.502       .  S
C76         C979   1.573   1_554  S
C77         C940   1.554       .  S
C77         C951   1.518   1_554  S
C78          C79   1.379       .  D
C78         C881   1.490       .  S
C78         C895   1.520   1_455  S
C79         C909   1.499   1_455  S
C79         C923   1.523       .  S
C80          C81   1.392       .  D
C80        C1388   1.542       .  S
C80        C1500   1.547       .  S
C81         C856   1.515       .  S
C81         C867   1.502       .  S
C82          C83   1.384       .  D
C82        C1360   1.501       .  S
C82        C1623   1.536       .  S
C83         C825   1.504       .  S
C83         C839   1.519       .  S
C84         C135   1.563       .  S
C84         C783   1.610       .  S
C84         C797   1.597       .  S
C84         C814   1.595       .  S
C85         C141   1.565       .  S
C85         N103   1.349       .  A
C85         C122   1.490       .  S
N86         N103   1.325       .  A
N86         N108   1.322       .  A
N86        Co123   2.086   1_655  S
C87         N112   1.358       .  A
C87         C125   1.490       .  S
C87         H132   1.075       .  S
H88         C129   1.075       .  S
C89         N113   1.345       .  A
C89          C93   1.472       .  S
C89         H118   1.078       .  S
Co90        N108   2.140   1_454  S
Co90         N98   2.163   1_455  S
Co90        N130   2.119   1_554  S
Co90        N106   2.134       .  S
Co90       Cl134   2.496       .  S
N91         C129   1.331       .  A
N91          N98   1.323       .  A
N91         Co92   2.089   1_655  S
Co92         N95   2.154   1_455  S
Co92        N112   2.152       .  S
Co92         N99   2.105       .  S
Co92       Cl134   2.477       .  S
C93         C142   1.584       .  S
C93         N131   1.368       .  A
N94         N101   1.316       .  A
N94         N124   1.335       .  A
N94        Co127   2.115   1_556  S
N95         N113   1.319       .  A
N95         N131   1.334       .  A
N96         C125   1.360       .  A
N96         N106   1.330       .  A
H97         C122   1.080       .  S
N98         N119   1.341       .  A
N99         N117   1.319       .  A
N99         N104   1.323       .  A
C100        C145   1.589       .  S
C100        N104   1.354       .  A
C100        C128   1.489       .  S
N101        C116   1.341       .  A
N101       Co123   2.103   1_655  S
C102        N130   1.358       .  A
C102        C105   1.488       .  S
C102        H136   1.082       .  S
C105        C139   1.596       .  S
C105        N126   1.360       .  A
N106        N112   1.323       .  A
N107        C133   1.347       .  A
N107        N109   1.319       .  A
N107       Co123   2.101       .  S
N108        C122   1.351       .  A
N109        N137   1.327       .  A
N109       Co127   2.123   1_456  S
H110        C133   1.079       .  S
H111        C128   1.079       .  S
N113       Co127   2.094       .  S
N114        N126   1.327       .  A
N114        N130   1.321       .  A
N114       Co123   2.135       .  S
C115        C138   1.580       .  S
C115        N119   1.374       .  A
C115        C129   1.467       .  S
C116        C135   1.478       .  S
C116        H120   1.080       .  S
N117        C128   1.356       .  A
N117       Co127   2.134   1_455  S
C121        C140   1.578       .  S
C121        N137   1.364       .  A
C121        C133   1.474       .  S
Co123      Cl134   2.466   1_556  S
N124        C135   1.361       .  A
C125        C146   1.601       .  S
Co127      Cl134   2.485   1_655  S
C138        C870   1.605       .  S
C138        C968   1.605       .  S
C138       C1161   1.601       .  S
C139        C842   1.580       .  S
C139        C926   1.584       .  S
C139       C1248   1.565       .  S
C140        C769   1.566       .  S
C140        C828   1.577       .  S
C140       C1007   1.592       .  S
C141        C758   1.611       .  S
C141        C912   1.604       .  S
C141        C982   1.568       .  S
C142        C730   1.600       .  S
C142        C741   1.587       .  S
C142        C853   1.610       .  S
C143        C144   1.389       .  D
C143       C1318   1.549       .  S
C143       C1556   1.561       .  S
C144        C755   1.506       .  S
C144        C811   1.511       .  S
C145        C713   1.597       .  S
C145        C996   1.591       .  S
C145       C1066   1.586       .  S
C146       C1052   1.587       .  S
C146       C1136   1.595       .  S
C146       C1276   1.602       .  S
C147        C148   1.372       .  D
C147        C660   1.524   1_545  S
C147        C674   1.507       .  S
C148        C688   1.499       .  S
C148        C699   1.517   1_545  S
C149        C150   1.392       .  D
C149        C629   1.552       .  S
C149        C646   1.560       .  S
C150       C1430   1.522       .  S
C150       C1483   1.521       .  S
C151        C152   1.374       .  D
C151       C1346   1.505       .  S
C151       C1570   1.533       .  S
C152        C601   1.514       .  S
C152        C618   1.493       .  S
C153        C204   1.605       .  S
C153        C590   1.600       .  S
C153        C615   1.618       .  S
C153        C954   1.602       .  S
C154        C209   1.563       .  S
C154        N172   1.348       .  A
C154        C191   1.488       .  S
N155        N172   1.325       .  A
N155        N177   1.321       .  A
N155       Co192   2.098       .  S
C156        N181   1.322       .  A
C156        C194   1.476       .  S
C156        H201   1.071       .  S
H157        C198   1.076       .  S
C158        N182   1.330       .  A
C158        C162   1.488       .  S
C158        H187   1.071       .  S
Co159       N177   2.141   1_554  S
Co159       N167   2.143       .  S
Co159       N199   2.136   1_544  S
Co159       N175   2.110   1_545  S
Co159      Cl203   2.492       .  S
N160        C198   1.345       .  A
N160        N167   1.322       .  A
N160       Co161   2.106       .  S
Co161       N164   2.109       .  S
Co161       N181   2.070   1_545  S
Co161       N168   2.143   1_545  S
Co161      Cl203   2.451       .  S
C162        C215   1.595       .  S
C162        N200   1.366       .  A
N163        N170   1.322       .  A
N163        N193   1.337       .  A
N163       Co196   2.145   1_556  S
N164        N182   1.315       .  A
N164        N200   1.336       .  A
N165        C194   1.369       .  A
N165        N175   1.332       .  A
H166        C191   1.081       .  S
N167        N188   1.331       .  A
N168        N186   1.317       .  A
N168        N173   1.340       .  A
C169        C207   1.605       .  S
C169        N173   1.368       .  A
C169        C197   1.492       .  S
N170        C185   1.356       .  A
N170       Co192   2.152       .  S
C171        N199   1.352       .  A
C171        C174   1.490       .  S
C171        H205   1.078       .  S
C174        C208   1.610       .  S
C174        N195   1.367       .  A
N175        N181   1.313       .  A
N176        C202   1.337       .  A
N176        N178   1.318       .  A
N176       Co192   2.081   1_565  S
N177        C191   1.355       .  A
N178        N206   1.326       .  A
N178       Co196   2.086   1_566  S
H179        C202   1.083       .  S
H180        C197   1.075       .  S
N182       Co196   2.087       .  S
N183        N195   1.339       .  A
N183        N199   1.319       .  A
N183       Co192   2.148   1_565  S
C184        C214   1.586       .  S
C184        N188   1.366       .  A
C184        C198   1.481       .  S
C185        C204   1.488       .  S
C185        H189   1.076       .  S
N186        C197   1.340       .  A
N186       Co196   2.119   1_565  S
C190        C210   1.532       .  S
C190        N206   1.353       .  A
C190        C202   1.467       .  S
Co192      Cl203   2.446   1_556  S
N193        C204   1.368       .  A
C194        C211   1.591       .  S
Co196      Cl203   2.483       .  S
C207        C562   1.594       .  S
C207        C573   1.591       .  S
C207        C643   1.625       .  S
C208        C548   1.601       .  S
C208        C702   1.595       .  S
C208       C1035   1.586       .  S
C209        C604   1.613       .  S
C209        C685   1.583       .  S
C209       C1290   1.582       .  S
C210        C503   1.600       .  S
C210        C517   1.595       .  S
C210        C534   1.599       .  S
C211        C632   1.598       .  S
C211       C1024   1.589       .  S
C211       C1192   1.604       .  S
C212        C213   1.382       .  D
C212       C1301   1.493       .  S
C212       C1595   1.513       .  S
C213        C531   1.515       .  S
C213        C545   1.514       .  S
C214       C1119   1.593       .  S
C214       C1217   1.587       .  S
C214       C1259   1.574       .  S
C215        C489   1.604       .  S
C215        C937   1.577       .  S
C215       C1105   1.601       .  S
C216        C217   1.384       .  D
C216        C716   1.524   1_655  S
C216        C744   1.519       .  S
C217        C461   1.501   1_655  S
C217        C478   1.512       .  S
C218        C219   1.362       .  D
C218        C492   1.510   1_565  S
C218        C576   1.503       .  S
C219        C436   1.499       .  S
C219        C447   1.515   1_565  S
C220        C221   1.391       .  D
C220       C1399   1.536       .  S
C220       C1584   1.502       .  S
C221        C405   1.505       .  S
C221        C422   1.532       .  S
C222        C223   1.379       .  D
C222        C380   1.508       .  S
C222        C391   1.529       .  S
C223       C1444   1.509       .  S
C223       C1612   1.497       .  S
C224        C225   1.588       .  S
C224        C408   1.568       .  S
C224        C450   1.597       .  S
C224       C1150   1.597       .  S
C225        N243   1.360       .  A
C225        C262   1.484       .  S
N226        N243   1.332       .  A
N226        N248   1.317       .  A
N226       Co263   2.113       .  S
C227        N252   1.343       .  A
C227        C265   1.476       .  S
C227        H272   1.077       .  S
H228        C269   1.077       .  S
C229        N253   1.342       .  A
C229        C233   1.471       .  S
C229        H258   1.081       .  S
Co230       N248   2.123       .  S
Co230       N238   2.119       .  S
Co230       N270   2.130   1_545  S
Co230       N246   2.142   1_545  S
Co230      Cl274   2.461       .  S
N231        C269   1.342       .  A
N231        N238   1.316       .  A
N231       Co232   2.102   1_655  S
Co232       N235   2.093       .  S
Co232       N252   2.102   1_445  S
Co232       N239   2.139   1_545  S
Co232      Cl274   2.455   1_455  S
C233        C286   1.542       .  S
C233        N271   1.355       .  A
N234        N241   1.320       .  A
N234        N264   1.324       .  A
N234       Co267   2.083       .  S
N235        N253   1.318       .  A
N235        N271   1.330       .  A
N236        C265   1.367       .  A
N236        N246   1.337       .  A
H237        C262   1.078       .  S
N238        N259   1.332       .  A
N239        N257   1.322       .  A
N239        N244   1.336       .  A
C240        C280   1.585       .  S
C240        N244   1.363       .  A
C240        C268   1.477       .  S
N241        C256   1.348       .  A
N241       Co263   2.130   1_455  S
C242        N270   1.340       .  A
C242        C245   1.491       .  S
C242        H276   1.076       .  S
C245        C278   1.581       .  S
C245        N266   1.359       .  A
N246        N252   1.319       .  A
N247        C273   1.352       .  A
N247        N249   1.317       .  A
N247       Co263   2.105   1_465  S
N248        C262   1.349       .  A
N249        N277   1.332       .  A
N249       Co267   2.141   1_565  S
H250        C273   1.079       .  S
H251        C268   1.072       .  S
N253       Co267   2.096       .  S
N254        N266   1.334       .  A
N254        N270   1.319       .  A
N254       Co263   2.102   1_565  S
C255        C281   1.576       .  S
C255        N259   1.364       .  A
C255        C269   1.480       .  S
C256        C275   1.489       .  S
C256        H260   1.081       .  S
N257        C268   1.342       .  A
N257       Co267   2.123   1_565  S
C261        C279   1.590       .  S
C261        N277   1.369       .  A
C261        C273   1.478       .  S
Co263      Cl274   2.460       .  S
N264        C275   1.349       .  A
C265        C282   1.574       .  S
Co267      Cl274   2.474   1_455  S
C275        C285   1.566       .  S
C278        C363   1.581       .  S
C278        C433   1.577       .  S
C278        C475   1.607       .  S
C279        C377   1.582       .  S
C279        C464   1.567       .  S
C279       C1231   1.596       .  S
C280        C349   1.610       .  S
C280        C394   1.597       .  S
C280        C657   1.607       .  S
C281        C335   1.604       .  S
C281        C419   1.587       .  S
C281        C898   1.589       .  S
C282        C296   1.603       .  S
C282        C307   1.585       .  S
C282        C321   1.598       .  S
C283        C284   1.377       .  D
C283       C1332   1.521       .  S
C283       C1472   1.514       .  S
C284        C324   1.512       .  S
C284        C366   1.507       .  S
C285       C1094   1.605       .  S
C285       C1178   1.584       .  S
C285       C1206   1.586       .  S
C286        C671   1.598       .  S
C286        C884   1.599       .  S
C286       C1077   1.575       .  S
C287        C288   1.406       .  D
C287        C772   1.575       .  S
C287        C800   1.535   1_455  S
C288        C293   1.547   1_455  S
C288        C352   1.507       .  S
C289        C290   1.369       .  D
C289        C310   1.509   1_545  S
C289        C338   1.498       .  S
C290        C506   1.513   1_545  S
C290        C587   1.521       .  S
C291        C292   1.388       .  D
C291        C727   1.530   1_556  S
C291        C786   1.511       .  S
C292        C520   1.521       .  S
C292        C559   1.527   1_556  S
C293        C294   1.422       .  A
C293        C298   1.419       .  A
C294        C295   1.424       .  A
C294        C299   1.437       .  S
C295        C296   1.434       .  A
C295        C302   1.443       .  S
C296        C297   1.428       .  A
C297        C298   1.410       .  A
C297        C300   1.436       .  S
C298        C301   1.443       .  S
C299        N306   1.156       .  T
C300        N305   1.156       .  T
C301        N303   1.158       .  T
C302        N304   1.155       .  T
C307        C308   1.424       .  A
C307        C312   1.434       .  A
C308        C309   1.410       .  A
C308        C313   1.448       .  S
C309        C310   1.403       .  A
C309        C316   1.448       .  S
C310        C311   1.414       .  A
C311        C312   1.420       .  A
C311        C314   1.452       .  S
C312        C315   1.449       .  S
C313        N320   1.156       .  T
C314        N319   1.157   1_565  T
C315        N317   1.157       .  T
C316        N318   1.157       .  T
C321        C322   1.452       .  A
C321        C326   1.431       .  A
C322        C323   1.419       .  A
C322        C327   1.445       .  S
C323        C324   1.406       .  A
C323        C330   1.446       .  S
C324        C325   1.406       .  A
C325        C326   1.396       .  A
C325        C328   1.446       .  S
C326        C329   1.442       .  S
C327        N334   1.157       .  T
C328        N333   1.158       .  T
C329        N331   1.158       .  T
C330        N332   1.156       .  T
C335        C336   1.424       .  A
C335        C340   1.461       .  A
C336        C337   1.383       .  A
C336        C341   1.429       .  S
C337        C338   1.396       .  A
C337        C344   1.447       .  S
C338        C339   1.406       .  A
C339        C340   1.419       .  A
C339        C342   1.447       .  S
C340        C343   1.447       .  S
C341        N348   1.152       .  T
C342        N347   1.157       .  T
C343        N345   1.158       .  T
C344        N346   1.158       .  T
C349        C350   1.445       .  A
C349        C354   1.445       .  A
C350        C351   1.421       .  A
C350        C355   1.449       .  S
C351        C352   1.403       .  A
C351        C358   1.452       .  S
C352        C353   1.407       .  A
C353        C354   1.417       .  A
C353        C356   1.457       .  S
C354        C357   1.453       .  S
C355        N362   1.156       .  T
C356        N361   1.157       .  T
C357        N359   1.157       .  T
C358        N360   1.157       .  T
C363        C364   1.417       .  A
C363        C368   1.437       .  A
C364        C365   1.406       .  A
C364        C369   1.449       .  S
C365        C366   1.405       .  A
C365        C372   1.446       .  S
C366        C367   1.415       .  A
C367        C368   1.416       .  A
C367        C370   1.452       .  S
C368        C371   1.451       .  S
C369        N376   1.157       .  T
C370        N375   1.157       .  T
C371        N373   1.156       .  T
C372        N374   1.157       .  T
C377        C378   1.400       .  A
C377        C382   1.447       .  A
C378        C379   1.385       .  A
C378        C383   1.435       .  S
C379        C380   1.404       .  A
C379        C386   1.442       .  S
C380        C381   1.424       .  A
C381        C382   1.428       .  A
C381        C384   1.444       .  S
C382        C385   1.449       .  S
C383        N390   1.154       .  T
C384        N389   1.157       .  T
C385        N387   1.158       .  T
C386        N388   1.157       .  T
C391        C392   1.416       .  A
C391        C396   1.412       .  A
C392        C393   1.420       .  A
C392        C397   1.445       .  S
C393        C394   1.436       .  A
C393        C400   1.451       .  S
C394        C395   1.432       .  A
C395        C396   1.416       .  A
C395        C398   1.447       .  S
C396        C399   1.456       .  S
C397        N404   1.157       .  T
C398        N403   1.153       .  T
C399        N401   1.157       .  T
C400        N402   1.158       .  T
C405        C406   1.418       .  A
C405        C410   1.406       .  A
C406        C407   1.412       .  A
C406        C411   1.443       .  S
C407        C408   1.430       .  A
C407        C414   1.454       .  S
C408        C409   1.427       .  A
C409        C410   1.394       .  A
C409        C412   1.447       .  S
C410        C413   1.441       .  S
C411        N418   1.157       .  T
C412        N417   1.157       .  T
C413        N415   1.157       .  T
C414        N416   1.157       .  T
C419        C420   1.416       .  A
C419        C424   1.422       .  A
C420        C421   1.404       .  A
C420        C425   1.446       .  S
C421        C422   1.414       .  A
C421        C428   1.440       .  S
C422        C423   1.419       .  A
C423        C424   1.422       .  A
C423        C426   1.443       .  S
C424        C427   1.451       .  S
C425        N432   1.158       .  T
C426        N431   1.157       .  T
C427        N429   1.157       .  T
C428        N430   1.157       .  T
C433        C434   1.444       .  A
C433        C438   1.409       .  A
C434        C435   1.424       .  A
C434        C439   1.444       .  S
C435        C436   1.417       .  A
C435        C442   1.447       .  S
C436        C437   1.392       .  A
C437        C438   1.380       .  A
C437        C440   1.447       .  S
C438        C441   1.424       .  S
C439        N446   1.156       .  T
C440        N445   1.157       .  T
C441        N443   1.149   1_565  T
C442        N444   1.157       .  T
C447        C448   1.408       .  A
C447        C452   1.408       .  A
C448        C449   1.409       .  A
C448        C453   1.448       .  S
C449        C450   1.442       .  A
C449        C456   1.452       .  S
C450        C451   1.439       .  A
C451        C452   1.416       .  A
C451        C454   1.447       .  S
C452        C455   1.454       .  S
C453        N460   1.157       .  T
C454        N459   1.158       .  T
C455        N457   1.157   1_545  T
C456        N458   1.158       .  T
C461        C462   1.406       .  A
C461        C466   1.410       .  A
C462        C463   1.412       .  A
C462        C467   1.443       .  S
C463        C464   1.432       .  A
C463        C470   1.443       .  S
C464        C465   1.421       .  A
C465        C466   1.390       .  A
C465        C468   1.448       .  S
C466        C469   1.440       .  S
C467        N474   1.157       .  T
C468        N473   1.157       .  T
C469        N471   1.158       .  T
C470        N472   1.156       .  T
C475        C476   1.449       .  A
C475        C480   1.429       .  A
C476        C477   1.416       .  A
C476        C481   1.442       .  S
C477        C478   1.401       .  A
C477        C484   1.444       .  S
C478        C479   1.413       .  A
C479        C480   1.401       .  A
C479        C482   1.438       .  S
C480        C483   1.444       .  S
C481        N488   1.158       .  T
C482        N487   1.158       .  T
C483        N485   1.157       .  T
C484        N486   1.157       .  T
C489        C490   1.437       .  A
C489        C494   1.444       .  A
C490        C491   1.412       .  A
C490        C495   1.438       .  S
C491        C492   1.401       .  A
C491        C498   1.459       .  S
C492        C493   1.405       .  A
C493        C494   1.417       .  A
C493        C496   1.450       .  S
C494        C497   1.445       .  S
C495        N502   1.155       .  T
C496        N501   1.157       .  T
C497        N499   1.156       .  T
C498        N500   1.157   1_545  T
C503        C504   1.439       .  A
C503        C508   1.444       .  A
C504        C505   1.420       .  A
C504        C509   1.450       .  S
C505        C506   1.412       .  A
C505        C512   1.440       .  S
C506        C507   1.392       .  A
C507        C508   1.408       .  A
C507        C510   1.452   1_565  S
C508        C511   1.439       .  S
C509        N516   1.158       .  T
C510        N515   1.158       .  T
C511        N513   1.157       .  T
C512        N514   1.157       .  T
C517        C518   1.407       .  A
C517        C522   1.415       .  A
C518        C519   1.399       .  A
C518        C523   1.443       .  S
C519        C520   1.417       .  A
C519        C526   1.443       .  S
C520        C521   1.419       .  A
C521        C522   1.415       .  A
C521        C524   1.442       .  S
C522        C525   1.443       .  S
C523        N530   1.156   1_556  T
C524        N529   1.157       .  T
C525        N527   1.155       .  T
C526        N528   1.157       .  T
C531        C532   1.405       .  A
C531        C536   1.410       .  A
C532        C533   1.415       .  A
C532        C537   1.450       .  S
C533        C534   1.434       .  A
C533        C540   1.444       .  S
C534        C535   1.432       .  A
C535        C536   1.408       .  A
C535        C538   1.443       .  S
C536        C539   1.454       .  S
C537        N544   1.156       .  T
C538        N543   1.156       .  T
C539        N541   1.157       .  T
C540        N542   1.156       .  T
C545        C546   1.404       .  A
C545        C550   1.414       .  A
C546        C547   1.416       .  A
C546        C551   1.450       .  S
C547        C548   1.448       .  A
C547        C554   1.451       .  S
C548        C549   1.433       .  A
C549        C550   1.415       .  A
C549        C552   1.450       .  S
C550        C553   1.453       .  S
C551        N558   1.157       .  T
C552        N557   1.156       .  T
C553        N555   1.157       .  T
C554        N556   1.157       .  T
C559        C560   1.414       .  A
C559        C564   1.421       .  A
C560        C561   1.418       .  A
C560        C565   1.444       .  S
C561        C562   1.422       .  A
C561        C568   1.451       .  S
C562        C563   1.438       .  A
C563        C564   1.420       .  A
C563        C566   1.457       .  S
C564        C567   1.449       .  S
C565        N572   1.156       .  T
C566        N571   1.156       .  T
C567        N569   1.158       .  T
C568        N570   1.157       .  T
C573        C574   1.452       .  A
C573        C578   1.407       .  A
C574        C575   1.427       .  A
C574        C579   1.445       .  S
C575        C576   1.416       .  A
C575        C582   1.450       .  S
C576        C577   1.392       .  A
C577        C578   1.383       .  A
C577        C580   1.448       .  S
C578        C581   1.421       .  S
C579        N586   1.157       .  T
C580        N585   1.157       .  T
C581        N583   1.148   1_565  T
C582        N584   1.157       .  T
C587        C588   1.403       .  A
C587        C592   1.414       .  A
C588        C589   1.415       .  A
C588        C593   1.453       .  S
C589        C590   1.440       .  A
C589        C596   1.444       .  S
C590        C591   1.442       .  A
C591        C592   1.413       .  A
C591        C594   1.456       .  S
C592        C595   1.446       .  S
C593        N600   1.157       .  T
C594        N599   1.158       .  T
C595        N597   1.157       .  T
C596        N598   1.157       .  T
C601        C602   1.407       .  A
C601        C606   1.403       .  A
C602        C603   1.415       .  A
C602        C607   1.448       .  S
C603        C604   1.443       .  A
C603        C610   1.446       .  S
C604        C605   1.450       .  A
C605        C606   1.408       .  A
C605        C608   1.447       .  S
C606        C609   1.453       .  S
C607        N614   1.157       .  T
C608        N613   1.159       .  T
C609        N611   1.158       .  T
C610        N612   1.156       .  T
C615        C616   1.450       .  A
C615        C620   1.442       .  A
C616        C617   1.409       .  A
C616        C621   1.438       .  S
C617        C618   1.399       .  A
C617        C624   1.454       .  S
C618        C619   1.394       .  A
C619        C620   1.412       .  A
C619        C622   1.448       .  S
C620        C623   1.433       .  S
C621        N628   1.156       .  T
C622        N627   1.157       .  T
C623        N625   1.151       .  T
C624        N626   1.157       .  T
C629        C630   1.438       .  A
C629        C634   1.400       .  A
C630        C631   1.442       .  A
C630        C635   1.443       .  S
C631        C632   1.447       .  A
C631        C638   1.441       .  S
C632        C633   1.410       .  A
C633        C634   1.393       .  A
C633        C636   1.447       .  S
C634        C637   1.443       .  S
C635        N642   1.156       .  T
C636        N641   1.157       .  T
C637        N639   1.158       .  T
C638        N640   1.157       .  T
C643        C644   1.451       .  A
C643        C648   1.454       .  A
C644        C645   1.437       .  A
C644        C649   1.450       .  S
C645        C646   1.408       .  A
C645        C652   1.444       .  S
C646        C647   1.386       .  A
C647        C648   1.416       .  A
C647        C650   1.448       .  S
C648        C651   1.442       .  S
C649        N656   1.157       .  T
C650        N655   1.157       .  T
C651        N653   1.158       .  T
C652        N654   1.157       .  T
C657        C658   1.438       .  A
C657        C662   1.437       .  A
C658        C659   1.414       .  A
C658        C663   1.444       .  S
C659        C660   1.407       .  A
C659        C666   1.446       .  S
C660        C661   1.414       .  A
C661        C662   1.421       .  A
C661        C664   1.453       .  S
C662        C665   1.445       .  S
C663        N670   1.154       .  T
C664        N669   1.157   1_565  T
C665        N667   1.157       .  T
C666        N668   1.156       .  T
C671        C672   1.421       .  A
C671        C676   1.405       .  A
C672        C673   1.420       .  A
C672        C677   1.440       .  S
C673        C674   1.417       .  A
C673        C680   1.445       .  S
C674        C675   1.403       .  A
C675        C676   1.389       .  A
C675        C678   1.449       .  S
C676        C679   1.435       .  S
C677        N684   1.154       .  T
C678        N683   1.157       .  T
C679        N681   1.152       .  T
C680        N682   1.157       .  T
C685        C686   1.407       .  A
C685        C690   1.393       .  A
C686        C687   1.408       .  A
C686        C691   1.447       .  S
C687        C688   1.412       .  A
C687        C694   1.444       .  S
C688        C689   1.415       .  A
C689        C690   1.396       .  A
C689        C692   1.447       .  S
C690        C693   1.427       .  S
C691        N698   1.157       .  T
C692        N697   1.157       .  T
C693        N695   1.148       .  T
C694        N696   1.157       .  T
C699        C700   1.406       .  A
C699        C704   1.415       .  A
C700        C701   1.413       .  A
C700        C705   1.448       .  S
C701        C702   1.446       .  A
C701        C708   1.452       .  S
C702        C703   1.432       .  A
C703        C704   1.415       .  A
C703        C706   1.450       .  S
C704        C707   1.451       .  S
C705        N712   1.157       .  T
C706        N711   1.158       .  T
C707        N709   1.158   1_565  T
C708        N710   1.158       .  T
C713        C714   1.443       .  A
C713        C718   1.422       .  A
C714        C715   1.418       .  A
C714        C719   1.445       .  S
C715        C716   1.407       .  A
C715        C722   1.448       .  S
C716        C717   1.420       .  A
C717        C718   1.409       .  A
C717        C720   1.439       .  S
C718        C721   1.447       .  S
C719        N726   1.158       .  T
C720        N725   1.158       .  T
C721        N723   1.157       .  T
C722        N724   1.157       .  T
C727        C728   1.413       .  A
C727        C732   1.415       .  A
C728        C729   1.420       .  A
C728        C733   1.443       .  S
C729        C730   1.444       .  A
C729        C736   1.451       .  S
C730        C731   1.429       .  A
C731        C732   1.416       .  A
C731        C734   1.445       .  S
C732        C735   1.448       .  S
C733        N740   1.156       .  T
C734        N739   1.154       .  T
C735        N737   1.158       .  T
C736        N738   1.158       .  T
C741        C742   1.434       .  A
C741        C746   1.426       .  A
C742        C743   1.422       .  A
C742        C747   1.448       .  S
C743        C744   1.414       .  A
C743        C750   1.447       .  S
C744        C745   1.415       .  A
C745        C746   1.400       .  A
C745        C748   1.436       .  S
C746        C749   1.455       .  S
C747        N754   1.158       .  T
C748        N753   1.157       .  T
C749        N751   1.158       .  T
C750        N752   1.157       .  T
C755        C756   1.411       .  A
C755        C760   1.407       .  A
C756        C757   1.410       .  A
C756        C761   1.455       .  S
C757        C758   1.439       .  A
C757        C764   1.453       .  S
C758        C759   1.443       .  A
C759        C760   1.420       .  A
C759        C762   1.453       .  S
C760        C763   1.452       .  S
C761        N768   1.156       .  T
C762        N767   1.158       .  T
C763        N765   1.157       .  T
C764        N766   1.158       .  T
C769        C770   1.421       .  A
C769        C774   1.427       .  A
C770        C771   1.393       .  A
C770        C775   1.438       .  S
C771        C772   1.409       .  A
C771        C778   1.447       .  S
C772        C773   1.447       .  A
C773        C774   1.436       .  A
C773        C776   1.416       .  S
C774        C777   1.449       .  S
C775        N782   1.155       .  T
C776        N781   1.153       .  T
C777        N779   1.158       .  T
C778        N780   1.157       .  T
C783        C784   1.435       .  A
C783        C788   1.439       .  A
C784        C785   1.407       .  A
C784        C789   1.443       .  S
C785        C786   1.406       .  A
C785        C792   1.442       .  S
C786        C787   1.403       .  A
C787        C788   1.412       .  A
C787        C790   1.442       .  S
C788        C791   1.435       .  S
C789        N796   1.157       .  T
C790        N795   1.156       .  T
C791        N793   1.157       .  T
C792        N794   1.157       .  T
C797        C798   1.431       .  A
C797        C802   1.426       .  A
C798        C799   1.427       .  A
C798        C803   1.450       .  S
C799        C800   1.417       .  A
C799        C806   1.446       .  S
C800        C801   1.421       .  A
C801        C802   1.410       .  A
C801        C804   1.452       .  S
C802        C805   1.454       .  S
C803        N810   1.157       .  T
C804        N809   1.158       .  T
C805        N807   1.158       .  T
C806        N808   1.156       .  T
C811        C812   1.418       .  A
C811        C816   1.396       .  A
C812        C813   1.428       .  A
C812        C817   1.448       .  S
C813        C814   1.443       .  A
C813        C820   1.446       .  S
C814        C815   1.437       .  A
C815        C816   1.388       .  A
C815        C818   1.448       .  S
C816        C819   1.446       .  S
C817        N824   1.157       .  T
C818        N823   1.158       .  T
C819        N821   1.157       .  T
C820        N822   1.157       .  T
C825        C826   1.410       .  A
C825        C830   1.408       .  A
C826        C827   1.411       .  A
C826        C831   1.451       .  S
C827        C828   1.428       .  A
C827        C834   1.460       .  S
C828        C829   1.440       .  A
C829        C830   1.419       .  A
C829        C832   1.447       .  S
C830        C833   1.454       .  S
C831        N838   1.157       .  T
C832        N837   1.157       .  T
C833        N835   1.157       .  T
C834        N836   1.157       .  T
C839        C840   1.429       .  A
C839        C844   1.410       .  A
C840        C841   1.433       .  A
C840        C845   1.445       .  S
C841        C842   1.448       .  A
C841        C848   1.449       .  S
C842        C843   1.390       .  A
C843        C844   1.382       .  A
C843        C846   1.425       .  S
C844        C847   1.440       .  S
C845        N852   1.157       .  T
C846        N851   1.151       .  T
C847        N849   1.157       .  T
C848        N850   1.157       .  T
C853        C854   1.447       .  A
C853        C858   1.439       .  A
C854        C855   1.424       .  A
C854        C859   1.454       .  S
C855        C856   1.410       .  A
C855        C862   1.449       .  S
C856        C857   1.411       .  A
C857        C858   1.413       .  A
C857        C860   1.454       .  S
C858        C861   1.448       .  S
C859        N866   1.158       .  T
C860        N865   1.158       .  T
C861        N863   1.157       .  T
C862        N864   1.157       .  T
C867        C868   1.396       .  A
C867        C872   1.412       .  A
C868        C869   1.388       .  A
C868        C873   1.440       .  S
C869        C870   1.423       .  A
C869        C876   1.436       .  S
C870        C871   1.455       .  A
C871        C872   1.416       .  A
C871        C874   1.449       .  S
C872        C875   1.446       .  S
C873        N880   1.157       .  T
C874        N879   1.158       .  T
C875        N877   1.156       .  T
C876        N878   1.155       .  T
C881        C882   1.406       .  A
C881        C886   1.400       .  A
C882        C883   1.405       .  A
C882        C887   1.452       .  S
C883        C884   1.450       .  A
C883        C890   1.448       .  S
C884        C885   1.433       .  A
C885        C886   1.405       .  A
C885        C888   1.445       .  S
C886        C889   1.445       .  S
C887        N894   1.157       .  T
C888        N893   1.158       .  T
C889        N891   1.157       .  T
C890        N892   1.158       .  T
C895        C896   1.415       .  A
C895        C900   1.418       .  A
C896        C897   1.413       .  A
C896        C901   1.443       .  S
C897        C898   1.434       .  A
C897        C904   1.456       .  S
C898        C899   1.432       .  A
C899        C900   1.413       .  A
C899        C902   1.460       .  S
C900        C903   1.449       .  S
C901        N908   1.156       .  T
C902        N907   1.158       .  T
C903        N905   1.158       .  T
C904        N906   1.158       .  T
C909        C910   1.404       .  A
C909        C914   1.404       .  A
C910        C911   1.422       .  A
C910        C915   1.450       .  S
C911        C912   1.445       .  A
C911        C918   1.437       .  S
C912        C913   1.419       .  A
C913        C914   1.397       .  A
C913        C916   1.445       .  S
C914        C917   1.447       .  S
C915        N922   1.156       .  T
C916        N921   1.157       .  T
C917        N919   1.157   1_655  T
C918        N920   1.154       .  T
C923        C924   1.415       .  A
C923        C928   1.425       .  A
C924        C925   1.390       .  A
C924        C929   1.441       .  S
C925        C926   1.409       .  A
C925        C932   1.432       .  S
C926        C927   1.444       .  A
C927        C928   1.427       .  A
C927        C930   1.448       .  S
C928        C931   1.442       .  S
C929        N936   1.157       .  T
C930        N935   1.158       .  T
C931        N933   1.156       .  T
C932        N934   1.152       .  T
C937        C938   1.400       .  A
C937        C942   1.436       .  A
C938        C939   1.381       .  A
C938        C943   1.445       .  S
C939        C940   1.403       .  A
C939        C946   1.439       .  S
C940        C941   1.443       .  A
C941        C942   1.436       .  A
C941        C944   1.442       .  S
C942        C945   1.443       .  S
C943        N950   1.156       .  T
C944        N949   1.158       .  T
C945        N947   1.157       .  T
C946        N948   1.157   1_554  T
C951        C952   1.402       .  A
C951        C956   1.415       .  A
C952        C953   1.413       .  A
C952        C957   1.454       .  S
C953        C954   1.455       .  A
C953        C960   1.446       .  S
C954        C955   1.428       .  A
C955        C956   1.423       .  A
C955        C958   1.456       .  S
C956        C959   1.447       .  S
C957        N964   1.156       .  T
C958        N963   1.158       .  T
C959        N961   1.157   1_556  T
C960        N962   1.157       .  T
C965        C966   1.398       .  A
C965        C970   1.406       .  A
C966        C967   1.409       .  A
C966        C971   1.463       .  S
C967        C968   1.444       .  A
C967        C974   1.439       .  S
C968        C969   1.434       .  A
C969        C970   1.423       .  A
C969        C972   1.454       .  S
C970        C973   1.450       .  S
C971        N978   1.157       .  T
C972        N977   1.158       .  T
C973        N975   1.157       .  T
C974        N976   1.159       .  T
C979        C980   1.444       .  A
C979        C984   1.426       .  A
C980        C981   1.430       .  A
C980        C985   1.426       .  S
C981        C982   1.426       .  A
C981        C988   1.450       .  S
C982        C983   1.409       .  A
C983        C984   1.376       .  A
C983        C986   1.448       .  S
C984        C987   1.440       .  S
C985        N992   1.152       .  T
C986        N991   1.157       .  T
C987        N989   1.158   1_556  T
C988        N990   1.157       .  T
C993        C994   1.410       .  A
C993        C998   1.414       .  A
C994        C995   1.418       .  A
C994        C999   1.448       .  S
C995        C996   1.423       .  A
C995       C1002   1.448       .  S
C996        C997   1.436       .  A
C997        C998   1.416       .  A
C997       C1000   1.450       .  S
C998       C1001   1.456       .  S
C999       N1006   1.157       .  T
C1000      N1005   1.156       .  T
C1001      N1003   1.157       .  T
C1002      N1004   1.157       .  T
C1007      C1008   1.453       .  A
C1007      C1012   1.394       .  A
C1008      C1009   1.431       .  A
C1008      C1013   1.449       .  S
C1009      C1010   1.421       .  A
C1009      C1016   1.447       .  S
C1010      C1011   1.411       .  A
C1011      C1012   1.382       .  A
C1011      C1014   1.440       .  S
C1012      C1015   1.440       .  S
C1013      N1020   1.157       .  T
C1014      N1019   1.157       .  T
C1015      N1017   1.155   1_556  T
C1016      N1018   1.156       .  T
C1021      C1022   1.410       .  A
C1021      C1026   1.416       .  A
C1022      C1023   1.409       .  A
C1022      C1027   1.446       .  S
C1023      C1024   1.423       .  A
C1023      C1030   1.450       .  S
C1024      C1025   1.440       .  A
C1025      C1026   1.418       .  A
C1025      C1028   1.453       .  S
C1026      C1029   1.452       .  S
C1027      N1034   1.157       .  T
C1028      N1033   1.157       .  T
C1029      N1031   1.157       .  T
C1030      N1032   1.158       .  T
C1035      C1036   1.442       .  A
C1035      C1040   1.423       .  A
C1036      C1037   1.418       .  A
C1036      C1041   1.452       .  S
C1037      C1038   1.411       .  A
C1037      C1044   1.450       .  S
C1038      C1039   1.412       .  A
C1039      C1040   1.405       .  A
C1039      C1042   1.453       .  S
C1040      C1043   1.442       .  S
C1041      N1048   1.158       .  T
C1042      N1047   1.157   1_556  T
C1043      N1045   1.151       .  T
C1044      N1046   1.157       .  T
C1049      C1050   1.408       .  A
C1049      C1054   1.416       .  A
C1050      C1051   1.410       .  A
C1050      C1055   1.447       .  S
C1051      C1052   1.438       .  A
C1051      C1058   1.452       .  S
C1052      C1053   1.429       .  A
C1053      C1054   1.415       .  A
C1053      C1056   1.455       .  S
C1054      C1057   1.452       .  S
C1055      N1062   1.157       .  T
C1056      N1061   1.158       .  T
C1057      N1059   1.157       .  T
C1058      N1060   1.158       .  T
C1063      C1064   1.418       .  A
C1063      C1068   1.398       .  A
C1064      C1065   1.428       .  A
C1064      C1069   1.447       .  S
C1065      C1066   1.450       .  A
C1065      C1072   1.446       .  S
C1066      C1067   1.406       .  A
C1067      C1068   1.385       .  A
C1067      C1070   1.437       .  S
C1068      C1071   1.440       .  S
C1069      N1076   1.157       .  T
C1070      N1075   1.156       .  T
C1071      N1073   1.157       .  T
C1072      N1074   1.157       .  T
C1077      C1078   1.419       .  A
C1077      C1082   1.432       .  A
C1078      C1079   1.412       .  A
C1078      C1083   1.455       .  S
C1079      C1080   1.426       .  A
C1079      C1086   1.437       .  S
C1080      C1081   1.416       .  A
C1081      C1082   1.416       .  A
C1081      C1084   1.448       .  S
C1082      C1085   1.453       .  S
C1083      N1090   1.158       .  T
C1084      N1089   1.157       .  T
C1085      N1087   1.158       .  T
C1086      N1088   1.157       .  T
C1091      C1092   1.403       .  A
C1091      C1096   1.387       .  A
C1092      C1093   1.412       .  A
C1092      C1097   1.441       .  S
C1093      C1094   1.441       .  A
C1093      C1100   1.450       .  S
C1094      C1095   1.463       .  A
C1095      C1096   1.419       .  A
C1095      C1098   1.446       .  S
C1096      C1099   1.451       .  S
C1097      N1104   1.155       .  T
C1098      N1103   1.158       .  T
C1099      N1101   1.157       .  T
C1100      N1102   1.158       .  T
C1105      C1106   1.450       .  A
C1105      C1110   1.433       .  A
C1106      C1107   1.421       .  A
C1106      C1111   1.438       .  S
C1107      C1108   1.400       .  A
C1107      C1114   1.457       .  S
C1108      C1109   1.402       .  A
C1109      C1110   1.409       .  A
C1109      C1112   1.447       .  S
C1110      C1113   1.450       .  S
C1111      N1118   1.155       .  T
C1112      N1117   1.157       .  T
C1113      N1115   1.156       .  T
C1114      N1116   1.157       .  T
C1119      C1120   1.429       .  A
C1119      C1124   1.432       .  A
C1120      C1121   1.418       .  A
C1120      C1125   1.452       .  S
C1121      C1122   1.421       .  A
C1121      C1128   1.443       .  S
C1122      C1123   1.413       .  A
C1123      C1124   1.405       .  A
C1123      C1126   1.441       .  S
C1124      C1127   1.449       .  S
C1125      N1132   1.156       .  T
C1126      N1131   1.156       .  T
C1127      N1129   1.157       .  T
C1128      N1130   1.157       .  T
C1133      C1134   1.404       .  A
C1133      C1138   1.400       .  A
C1134      C1135   1.404       .  A
C1134      C1139   1.445       .  S
C1135      C1136   1.436       .  A
C1135      C1142   1.446       .  S
C1136      C1137   1.436       .  A
C1137      C1138   1.415       .  A
C1137      C1140   1.439       .  S
C1138      C1141   1.447       .  S
C1139      N1146   1.157       .  T
C1140      N1145   1.155       .  T
C1141      N1143   1.157       .  T
C1142      N1144   1.157       .  T
C1147      C1148   1.412       .  A
C1147      C1152   1.418       .  A
C1148      C1149   1.413       .  A
C1148      C1153   1.445       .  S
C1149      C1150   1.441       .  A
C1149      C1156   1.456       .  S
C1150      C1151   1.430       .  A
C1151      C1152   1.416       .  A
C1151      C1154   1.450       .  S
C1152      C1155   1.451       .  S
C1153      N1160   1.156       .  T
C1154      N1159   1.156       .  T
C1155      N1157   1.157       .  T
C1156      N1158   1.158       .  T
C1161      C1162   1.440       .  A
C1161      C1166   1.435       .  A
C1162      C1163   1.414       .  A
C1162      C1167   1.453       .  S
C1163      C1164   1.409       .  A
C1163      C1170   1.445       .  S
C1164      C1165   1.417       .  A
C1165      C1166   1.415       .  A
C1165      C1168   1.452       .  S
C1166      C1169   1.453       .  S
C1167      N1174   1.157       .  T
C1168      N1173   1.158       .  T
C1169      N1171   1.158       .  T
C1170      N1172   1.157       .  T
C1175      C1176   1.416       .  A
C1175      C1180   1.413       .  A
C1176      C1177   1.418       .  A
C1176      C1181   1.451       .  S
C1177      C1178   1.424       .  A
C1177      C1184   1.438       .  S
C1178      C1179   1.417       .  A
C1179      C1180   1.403       .  A
C1179      C1182   1.448       .  S
C1180      C1183   1.442       .  S
C1181      N1188   1.157   1_455  T
C1182      N1187   1.155       .  T
C1183      N1185   1.157       .  T
C1184      N1186   1.152       .  T
C1189      C1190   1.402       .  A
C1189      C1194   1.407       .  A
C1190      C1191   1.412       .  A
C1190      C1195   1.457       .  S
C1191      C1192   1.439       .  A
C1191      C1198   1.439       .  S
C1192      C1193   1.449       .  A
C1193      C1194   1.420       .  A
C1193      C1196   1.450       .  S
C1194      C1197   1.449       .  S
C1195      N1202   1.157   1_565  T
C1196      N1201   1.158       .  T
C1197      N1199   1.157       .  T
C1198      N1200   1.158       .  T
C1203      C1204   1.422       .  A
C1203      C1208   1.408       .  A
C1204      C1205   1.426       .  A
C1204      C1209   1.443       .  S
C1205      C1206   1.442       .  A
C1205      C1212   1.445       .  S
C1206      C1207   1.408       .  A
C1207      C1208   1.388       .  A
C1207      C1210   1.422       .  S
C1208      C1211   1.445       .  S
C1209      N1216   1.157       .  T
C1210      N1215   1.149       .  T
C1211      N1213   1.158   1_545  T
C1212      N1214   1.157       .  T
C1217      C1218   1.431       .  A
C1217      C1222   1.440       .  A
C1218      C1219   1.411       .  A
C1218      C1223   1.451       .  S
C1219      C1220   1.411       .  A
C1219      C1226   1.452       .  S
C1220      C1221   1.409       .  A
C1221      C1222   1.411       .  A
C1221      C1224   1.450       .  S
C1222      C1225   1.452       .  S
C1223      N1230   1.158       .  T
C1224      N1229   1.158       .  T
C1225      N1227   1.157       .  T
C1226      N1228   1.157       .  T
C1231      C1232   1.446       .  A
C1231      C1236   1.441       .  A
C1232      C1233   1.417       .  A
C1232      C1237   1.446       .  S
C1233      C1234   1.405       .  A
C1233      C1240   1.452       .  S
C1234      C1235   1.403       .  A
C1235      C1236   1.412       .  A
C1235      C1238   1.454       .  S
C1236      C1239   1.451       .  S
C1237      N1244   1.157       .  T
C1238      N1243   1.157   1_565  T
C1239      N1241   1.157       .  T
C1240      N1242   1.157       .  T
C1245      C1246   1.413       .  A
C1245      C1250   1.402       .  A
C1246      C1247   1.411       .  A
C1246      C1251   1.449       .  S
C1247      C1248   1.433       .  A
C1247      C1254   1.449       .  S
C1248      C1249   1.435       .  A
C1249      C1250   1.404       .  A
C1249      C1252   1.451       .  S
C1250      C1253   1.453       .  S
C1251      N1258   1.158       .  T
C1252      N1257   1.156       .  T
C1253      N1255   1.157   1_556  T
C1254      N1256   1.158       .  T
C1259      C1260   1.437       .  A
C1259      C1264   1.425       .  A
C1260      C1261   1.406       .  A
C1260      C1265   1.448       .  S
C1261      C1262   1.410       .  A
C1261      C1268   1.449       .  S
C1262      C1263   1.421       .  A
C1263      C1264   1.407       .  A
C1263      C1266   1.447       .  S
C1264      C1267   1.457       .  S
C1265      N1272   1.157       .  T
C1266      N1271   1.158       .  T
C1267      N1269   1.158       .  T
C1268      N1270   1.157       .  T
C1273      C1274   1.408       .  A
C1273      C1278   1.426       .  A
C1274      C1275   1.410       .  A
C1274      C1279   1.448       .  S
C1275      C1276   1.441       .  A
C1275      C1282   1.450       .  S
C1276      C1277   1.432       .  A
C1277      C1278   1.417       .  A
C1277      C1280   1.459       .  S
C1278      C1281   1.449       .  S
C1279      N1286   1.157       .  T
C1280      N1285   1.158       .  T
C1281      N1283   1.157   1_554  T
C1282      N1284   1.158       .  T
C1287      C1288   1.399       .  A
C1287      C1292   1.416       .  A
C1288      C1289   1.385       .  A
C1288      C1293   1.442       .  S
C1289      C1290   1.411       .  A
C1289      C1296   1.448       .  S
C1290      C1291   1.435       .  A
C1291      C1292   1.423       .  A
C1291      C1294   1.446       .  S
C1292      C1295   1.444       .  S
C1293      N1300   1.157       .  T
C1294      N1299   1.157       .  T
C1295      N1297   1.157       .  T
C1296      N1298   1.158       .  T
C1301      C1302   1.403       .  A
C1301      C1306   1.403       .  A
C1302      C1303   1.391       .  A
C1302      C1307   1.446       .  S
C1303      C1304   1.404       .  A
C1303      C1310   1.448       .  S
C1304      C1305   1.469       .  A
C1305      C1306   1.427       .  A
C1305      C1308   1.442       .  S
C1306      C1309   1.454       .  S
C1307      N1314   1.157       .  T
C1308      N1313   1.157       .  T
C1309      N1311   1.157       .  T
C1310      N1312   1.157       .  T
C1315      C1316   1.446       .  A
C1315      C1320   1.463       .  A
C1316      C1317   1.421       .  A
C1316      C1321   1.455       .  S
C1317      C1318   1.413       .  A
C1317      C1324   1.453       .  S
C1318      C1319   1.387       .  A
C1319      C1320   1.423       .  A
C1319      C1322   1.450       .  S
C1320      C1323   1.454       .  S
C1321      N1328   1.157       .  T
C1322      N1327   1.156       .  T
C1323      N1325   1.159       .  T
C1324      N1326   1.159       .  T
C1329      C1330   1.426       .  A
C1329      C1334   1.457       .  A
C1330      C1331   1.415       .  A
C1330      C1335   1.435       .  S
C1331      C1332   1.405       .  A
C1331      C1338   1.448       .  S
C1332      C1333   1.412       .  A
C1333      C1334   1.421       .  A
C1333      C1336   1.455       .  S
C1334      C1337   1.461       .  S
C1335      N1342   1.151       .  T
C1336      N1341   1.157       .  T
C1337      N1339   1.158       .  T
C1338      N1340   1.157       .  T
C1343      C1344   1.432       .  A
C1343      C1348   1.441       .  A
C1344      C1345   1.390       .  A
C1344      C1349   1.433       .  S
C1345      C1346   1.391       .  A
C1345      C1352   1.450       .  S
C1346      C1347   1.412       .  A
C1347      C1348   1.420       .  A
C1347      C1350   1.445       .  S
C1348      C1351   1.441       .  S
C1349      N1356   1.153       .  T
C1350      N1355   1.157       .  T
C1351      N1353   1.156       .  T
C1352      N1354   1.158       .  T
C1357      C1358   1.443       .  A
C1357      C1362   1.447       .  A
C1358      C1359   1.410       .  A
C1358      C1363   1.439       .  S
C1359      C1360   1.398       .  A
C1359      C1366   1.464       .  S
C1360      C1361   1.402       .  A
C1361      C1362   1.421       .  A
C1361      C1364   1.451       .  S
C1362      C1365   1.448       .  S
C1363      N1370   1.157       .  T
C1364      N1369   1.157       .  T
C1365      N1367   1.158       .  T
C1366      N1368   1.158       .  T
C1371      C1372   1.427       .  A
C1371      C1376   1.421       .  A
C1372      C1373   1.411       .  A
C1372      C1377   1.451       .  S
C1373      C1374   1.420       .  A
C1373      C1380   1.451       .  S
C1374      C1375   1.411       .  A
C1375      C1376   1.413       .  A
C1375      C1378   1.445       .  S
C1376      C1379   1.448       .  S
C1377      N1384   1.156       .  T
C1378      N1383   1.157       .  T
C1379      N1381   1.156       .  T
C1380      N1382   1.158       .  T
C1385      C1386   1.453       .  A
C1385      C1390   1.471       .  A
C1386      C1387   1.414       .  A
C1386      C1391   1.441       .  S
C1387      C1388   1.394       .  A
C1387      C1394   1.451       .  S
C1388      C1389   1.382       .  A
C1389      C1390   1.427       .  A
C1389      C1392   1.449       .  S
C1390      C1393   1.446       .  S
C1391      N1398   1.158       .  T
C1392      N1397   1.158       .  T
C1393      N1395   1.159       .  T
C1394      N1396   1.158       .  T
C1399      C1400   1.421       .  A
C1399      C1404   1.408       .  A
C1400      C1401   1.423       .  A
C1400      C1405   1.441       .  S
C1401      C1402   1.431       .  A
C1401      C1408   1.455       .  S
C1402      C1403   1.418       .  A
C1403      C1404   1.417       .  A
C1403      C1406   1.435       .  S
C1404      C1407   1.445       .  S
C1405      N1412   1.157       .  T
C1406      N1411   1.153       .  T
C1407      N1409   1.156       .  T
C1408      N1410   1.157       .  T
C1413      C1414   1.408       .  A
C1413      C1418   1.449       .  A
C1414      C1415   1.395       .  A
C1414      C1419   1.433       .  S
C1415      C1416   1.392       .  A
C1415      C1422   1.443       .  S
C1416      C1417   1.423       .  A
C1417      C1418   1.440       .  A
C1417      C1420   1.438       .  S
C1418      C1421   1.448       .  S
C1419      N1426   1.154       .  T
C1420      N1425   1.156       .  T
C1421      N1423   1.157       .  T
C1422      N1424   1.157       .  T
C1427      C1428   1.445       .  A
C1427      C1432   1.408       .  A
C1428      C1429   1.431       .  A
C1428      C1433   1.443       .  S
C1429      C1430   1.423       .  A
C1429      C1436   1.441       .  S
C1430      C1431   1.394       .  A
C1431      C1432   1.381       .  A
C1431      C1434   1.440       .  S
C1432      C1435   1.418       .  S
C1433      N1440   1.157       .  T
C1434      N1439   1.158       .  T
C1435      N1437   1.147       .  T
C1436      N1438   1.155       .  T
C1441      C1442   1.422       .  A
C1441      C1446   1.425       .  A
C1442      C1443   1.408       .  A
C1442      C1447   1.449       .  S
C1443      C1444   1.407       .  A
C1443      C1450   1.449       .  S
C1444      C1445   1.423       .  A
C1445      C1446   1.413       .  A
C1445      C1448   1.450       .  S
C1446      C1449   1.452       .  S
C1447      N1454   1.157       .  T
C1448      N1453   1.157       .  T
C1449      N1451   1.156       .  T
C1450      N1452   1.157       .  T
C1455      C1456   1.446       .  A
C1455      C1460   1.441       .  A
C1456      C1457   1.408       .  A
C1456      C1461   1.448       .  S
C1457      C1458   1.400       .  A
C1457      C1464   1.459       .  S
C1458      C1459   1.405       .  A
C1459      C1460   1.417       .  A
C1459      C1462   1.452       .  S
C1460      C1463   1.445       .  S
C1461      N1468   1.159       .  T
C1462      N1467   1.157       .  T
C1463      N1465   1.156       .  T
C1464      N1466   1.157       .  T
C1469      C1470   1.450       .  A
C1469      C1474   1.429       .  A
C1470      C1471   1.421       .  A
C1470      C1475   1.453       .  S
C1471      C1472   1.412       .  A
C1471      C1478   1.447       .  S
C1472      C1473   1.403       .  A
C1473      C1474   1.399       .  A
C1473      C1476   1.449       .  S
C1474      C1477   1.444       .  S
C1475      N1482   1.158       .  T
C1476      N1481   1.157       .  T
C1477      N1479   1.158       .  T
C1478      N1480   1.157       .  T
C1483      C1484   1.414       .  A
C1483      C1488   1.414       .  A
C1484      C1485   1.415       .  A
C1484      C1489   1.457       .  S
C1485      C1486   1.422       .  A
C1485      C1492   1.433       .  S
C1486      C1487   1.437       .  A
C1487      C1488   1.425       .  A
C1487      C1490   1.452       .  S
C1488      C1491   1.450       .  S
C1489      N1496   1.158       .  T
C1490      N1495   1.158       .  T
C1491      N1493   1.157       .  T
C1492      N1494   1.151       .  T
C1497      C1498   1.421       .  A
C1497      C1502   1.439       .  A
C1498      C1499   1.415       .  A
C1498      C1503   1.443       .  S
C1499      C1500   1.426       .  A
C1499      C1506   1.431       .  S
C1500      C1501   1.410       .  A
C1501      C1502   1.418       .  A
C1501      C1504   1.443       .  S
C1502      C1505   1.440       .  S
C1503      N1510   1.157       .  T
C1504      N1509   1.155       .  T
C1505      N1507   1.157       .  T
C1506      N1508   1.156       .  T
C1511      C1512   1.438       .  A
C1511      C1516   1.429       .  A
C1512      C1513   1.409       .  A
C1512      C1517   1.454       .  S
C1513      C1514   1.412       .  A
C1513      C1520   1.447       .  S
C1514      C1515   1.419       .  A
C1515      C1516   1.415       .  A
C1515      C1518   1.450       .  S
C1516      C1519   1.453       .  S
C1517      N1524   1.158       .  T
C1518      N1523   1.157       .  T
C1519      N1521   1.158       .  T
C1520      N1522   1.157       .  T
C1525      C1526   1.440       .  A
C1525      C1530   1.442       .  A
C1526      C1527   1.402       .  A
C1526      C1531   1.454       .  S
C1527      C1528   1.396       .  A
C1527      C1534   1.447       .  S
C1528      C1529   1.404       .  A
C1529      C1530   1.407       .  A
C1529      C1532   1.452       .  S
C1530      C1533   1.451       .  S
C1531      N1538   1.157       .  T
C1532      N1537   1.157       .  T
C1533      N1535   1.157       .  T
C1534      N1536   1.157       .  T
C1539      C1540   1.397       .  A
C1539      C1544   1.420       .  A
C1540      C1541   1.395       .  A
C1540      C1545   1.445       .  S
C1541      C1542   1.435       .  A
C1541      C1548   1.442       .  S
C1542      C1543   1.437       .  A
C1543      C1544   1.420       .  A
C1543      C1546   1.449       .  S
C1544      C1547   1.447       .  S
C1545      N1552   1.157       .  T
C1546      N1551   1.157       .  T
C1547      N1549   1.157       .  T
C1548      N1550   1.155       .  T
C1553      C1554   1.437       .  A
C1553      C1558   1.453       .  A
C1554      C1555   1.439       .  A
C1554      C1559   1.450       .  S
C1555      C1556   1.421       .  A
C1555      C1562   1.433       .  S
C1556      C1557   1.387       .  A
C1557      C1558   1.410       .  A
C1557      C1560   1.443       .  S
C1558      C1561   1.444       .  S
C1559      N1566   1.157       .  T
C1560      N1565   1.158       .  T
C1561      N1563   1.159       .  T
C1562      N1564   1.154       .  T
C1567      C1568   1.442       .  A
C1567      C1572   1.405       .  A
C1568      C1569   1.427       .  A
C1568      C1573   1.451       .  S
C1569      C1570   1.415       .  A
C1569      C1576   1.452       .  S
C1570      C1571   1.417       .  A
C1571      C1572   1.414       .  A
C1571      C1574   1.441       .  S
C1572      C1575   1.435       .  S
C1573      N1580   1.158       .  T
C1574      N1579   1.156       .  T
C1575      N1577   1.152       .  T
C1576      N1578   1.157       .  T
C1581      C1582   1.426       .  A
C1581      C1586   1.440       .  A
C1582      C1583   1.404       .  A
C1582      C1587   1.439       .  S
C1583      C1584   1.411       .  A
C1583      C1590   1.441       .  S
C1584      C1585   1.406       .  A
C1585      C1586   1.398       .  A
C1585      C1588   1.443       .  S
C1586      C1589   1.446       .  S
C1587      N1594   1.157       .  T
C1588      N1593   1.158       .  T
C1589      N1591   1.158       .  T
C1590      N1592   1.157       .  T
C1595      C1596   1.407       .  A
C1595      C1600   1.419       .  A
C1596      C1597   1.411       .  A
C1596      C1601   1.447       .  S
C1597      C1598   1.445       .  A
C1597      C1604   1.453       .  S
C1598      C1599   1.430       .  A
C1599      C1600   1.415       .  A
C1599      C1602   1.451       .  S
C1600      C1603   1.452       .  S
C1601      N1608   1.157       .  T
C1602      N1607   1.158       .  T
C1603      N1605   1.158       .  T
C1604      N1606   1.158       .  T
C1609      C1610   1.428       .  A
C1609      C1614   1.436       .  A
C1610      C1611   1.405       .  A
C1610      C1615   1.457       .  S
C1611      C1612   1.416       .  A
C1611      C1618   1.450       .  S
C1612      C1613   1.404       .  A
C1613      C1614   1.404       .  A
C1613      C1616   1.452       .  S
C1614      C1617   1.447       .  S
C1615      N1622   1.156       .  T
C1616      N1621   1.157       .  T
C1617      N1619   1.156       .  T
C1618      N1620   1.158       .  T
C1623      C1624   1.413       .  A
C1623      C1628   1.404       .  A
C1624      C1625   1.421       .  A
C1624      C1629   1.449       .  S
C1625      C1626   1.437       .  A
C1625      C1632   1.452       .  S
C1626      C1627   1.449       .  A
C1627      C1628   1.414       .  A
C1627      C1630   1.454       .  S
C1628      C1631   1.441       .  S
C1629      N1636   1.157       .  T
C1630      N1635   1.158       .  T
C1631      N1633   1.156       .  T
C1632      N1634   1.158       .  T
