geometry optimzed in LAMMPS
_audit_creation_date              2020-11-30 
_audit_creation_method            'lammps2cif' 
_symmetry_space_group_name_H-M    'P1' 
_symmetry_Int_Tables_number       1 
_symmetry_cell_setting            triclinic 
loop_ 
_symmetry_equiv_pos_as_xyz 
  x,y,z 
_cell_length_a                    29.91228174774046 
_cell_length_b                    29.200824430474626 
_cell_length_c                    32.08948163528183 
_cell_angle_alpha                 89.94231691874096 
_cell_angle_beta                  90.11769648188144 
_cell_angle_gamma                 89.72648880404937 
loop_ 
_atom_site_label 
_atom_site_type_symbol 
_atom_site_fract_x 
_atom_site_fract_y 
_atom_site_fract_z 
_atom_site_charge 
N1          N  0.19867721  0.33740743  0.20282922    -0.06800
N2          N  0.19213840  0.36849924  0.17363420    -0.58920
N3          N  0.16334731  0.30638712  0.29640514    -0.06480
N4          N  0.13102141  0.31676437  0.32277378    -0.61050
N5          N  0.19502219  0.33753341  0.29768912    -0.06080
N6          N  0.18501771  0.36962883  0.32510953    -0.58900
N7          N  0.16740313  0.30597594  0.20138237    -0.05760
N8          N  0.13897204  0.31504195  0.17097126    -0.61400
C9          C  0.15491255  0.35409930  0.15382060     0.95370
C10         C  0.14517357  0.35609923  0.34044021     0.95150
N11         N  0.19479599  0.16576931  0.29845684    -0.06990
N12         N  0.18711505  0.13650179  0.32899797    -0.59500
N13         N  0.16600268  0.19818706  0.20113026    -0.05110
N14         N  0.13730535  0.19101039  0.17051256    -0.60750
N15         N  0.19637147  0.16550021  0.20223966    -0.07020
N16         N  0.18880605  0.13524364  0.17249439    -0.59770
N17         N  0.16355766  0.19767839  0.29735981    -0.04750
N18         N  0.13381496  0.19052771  0.32700690    -0.60840
Mn19       Mn  0.16372051  0.25189038  0.24906375     1.18440
C20         C  0.14930827  0.15270417  0.34687865     0.97460
C21         C  0.15240406  0.15209325  0.15250998     0.98120
N22         N  0.30106063  0.33555970  0.30075872    -0.07040
N23         N  0.30902562  0.36642332  0.32979790    -0.63350
N24         N  0.33389395  0.30317792  0.20583572    -0.05840
N25         N  0.36338317  0.30930711  0.17591517    -0.64020
N26         N  0.30312405  0.33542373  0.20478760    -0.06540
N27         N  0.31091095  0.36417839  0.17385756    -0.63610
N28         N  0.33207090  0.30347886  0.30135234    -0.05440
N29         N  0.36180412  0.31203672  0.33076107    -0.64300
Mn30       Mn  0.24959380  0.33774434  0.25172907     1.10660
C31         C  0.34682147  0.35124055  0.34856866     0.98680
C32         C  0.34830693  0.34703154  0.15586042     0.98760
N33         N  0.30111894  0.16509094  0.20399127    -0.06550
N34         N  0.30804085  0.13611971  0.17314389    -0.61920
N35         N  0.33146332  0.19510700  0.30092540    -0.05870
N36         N  0.36099286  0.18612130  0.33051228    -0.58650
N37         N  0.30044329  0.16335352  0.29997912    -0.07180
N38         N  0.30843257  0.13199533  0.32879277    -0.61490
N39         N  0.33236860  0.19660381  0.20458394    -0.06170
N40         N  0.36108808  0.18986091  0.17394527    -0.58680
Mn41       Mn  0.24815053  0.16344238  0.25129732     1.20190
Mn42       Mn  0.33379340  0.24952439  0.25341428     1.10090
Cl43       Cl  0.24872510  0.25064966  0.25179861    -0.86650
C44         C  0.34499188  0.15250810  0.15418634     0.95690
C45         C  0.34624001  0.14667222  0.34776445     0.95480
C46         C  0.45047164  0.45681813  0.47085242    -0.03170
C47         C  0.44915470  0.04289489  0.47310175    -0.03170
C48         C  0.04816938  0.45935535  0.46738195    -0.03170
C49         C  0.04611468  0.04439796  0.46890985    -0.03170
C50         C  0.02093477  0.00153218  0.45276250    -0.00120
C51         C  0.47443980  0.00052525  0.45449761    -0.00120
C52         C  0.45289735  0.45471492  0.03577331    -0.03170
C53         C  0.05023048  0.45687935  0.03133270    -0.03170
C54         C  0.47851521  0.43011742  0.00164849    -0.00120
C55         C  0.02314078  0.43131439  0.99937215    -0.00120
C56         C  0.04801226  0.04223797  0.03483590    -0.03170
C57         C  0.47813434  0.99728584  0.05178080    -0.00120
C58         C  0.02434374  0.99827789  0.04978221    -0.00120
C59         C  0.07874694  0.47925214  0.99926433    -0.00120
C60         C  0.07728799  0.02390308  0.00093454    -0.00070
C61         C  0.47601649  0.06763777  0.00584495    -0.00120
C62         C  0.02039956  0.06889848  0.00358549    -0.00120
C63         C  0.45089663  0.03991439  0.03860388    -0.03170
C64         C  0.42200005  0.47628784  0.00462901    -0.00120
C65         C  0.42053103  0.02111312  0.00582209    -0.00120
C66         C  0.41753235  0.36810810  0.38614826    -0.27000
C67         C  0.37170425  0.37679971  0.38108920    -0.15070
C68         C  0.35102492  0.40924523  0.40742760     0.35560
C69         C  0.37652508  0.43263412  0.43691665    -0.26450
C70         C  0.42341636  0.42699632  0.44009359    -0.15690
C71         C  0.44335131  0.39201821  0.41560840     0.36640
N72         N  0.48885449  0.37835711  0.42231186    -0.89940
H73         H  0.43346207  0.34208106  0.36717974     0.17760
H74         H  0.35892499  0.45675254  0.45659030     0.17750
N75         N  0.30409644  0.41910581  0.40559834    -0.88970
H76         H  0.49955400  0.35594372  0.39893042     0.35130
H77         H  0.48979681  0.35935715  0.44991269     0.40220
H78         H  0.28640655  0.38858053  0.40925519     0.39840
H79         H  0.29656267  0.43365711  0.37665905     0.34730
C80         C  0.40192714  0.14420842  0.40566166    -0.27000
C81         C  0.37087048  0.12108698  0.38071135    -0.15070
C82         C  0.36603017  0.07359180  0.38601225     0.35560
C83         C  0.39160207  0.05061060  0.41613801    -0.26450
C84         C  0.42240827  0.07303293  0.44204336    -0.15690
C85         C  0.42792322  0.12131050  0.43568624     0.36640
N86         N  0.46117270  0.14832271  0.45630006    -0.89940
H87         H  0.40685196  0.18064605  0.40126500     0.17760
H88         H  0.38828605  0.01433476  0.41810510     0.17750
N89         N  0.33647966  0.04791088  0.35985576    -0.88970
H90         H  0.49281205  0.13469695  0.45051657     0.35130
H91         H  0.45509104  0.15012287  0.48818622     0.40220
H92         H  0.35533784  0.02303561  0.34427176     0.39840
H93         H  0.31353680  0.03104658  0.37895149     0.34730
C94         C  0.06113346  0.43574401  0.39193614    -0.27000
C95         C  0.07391629  0.43217749  0.43413108    -0.15070
C96         C  0.11079540  0.40317709  0.44416038     0.35560
C97         C  0.13342869  0.37948163  0.41274047    -0.26450
C98         C  0.11957851  0.38221667  0.37138382    -0.15690
C99         C  0.08251725  0.41013494  0.36070966     0.36640
N100        N  0.06589702  0.41383824  0.31874517    -0.89940
H101        H  0.03308409  0.45723999  0.38307780     0.17760
H102        H  0.16192867  0.35816832  0.42092531     0.17750
N103        N  0.12640550  0.39797502  0.48603537    -0.88970
H104        H  0.03342537  0.40071959  0.31845886     0.35130
H105        H  0.08451041  0.39400202  0.29799035     0.40220
H106        H  0.15964863  0.40881548  0.48735947     0.39840
H107        H  0.12569325  0.36315846  0.49362671     0.34730
C108        C  0.41939511  0.37760932  0.13084021    -0.27000
C109        C  0.37404905  0.37068889  0.12333791    -0.15070
C110        C  0.35481164  0.38806086  0.08649475     0.35560
C111        C  0.38128181  0.41367063  0.05918293    -0.26450
C112        C  0.42698788  0.42384922  0.06729536    -0.15690
C113        C  0.44574218  0.40458571  0.10465190     0.36640
N114        N  0.49040816  0.41252541  0.11898917    -0.89940
H115        H  0.43428546  0.36401999  0.15915524     0.17760
H116        H  0.36480874  0.42543872  0.03114745     0.17750
N117        N  0.30896190  0.37987588  0.07509280    -0.88970
H118        H  0.48863376  0.42744426  0.14856763     0.35130
H119        H  0.50580516  0.43648281  0.10073852     0.40220
H120        H  0.29301600  0.35844647  0.09632424     0.39840
H121        H  0.30904579  0.36212751  0.04680103     0.34730
C122        C  0.11746233  0.08517835  0.44380303    -0.27000
C123        C  0.07186476  0.07408065  0.43607980    -0.15070
C124        C  0.05372706  0.09005144  0.39711127     0.35560
C125        C  0.07959359  0.11721165  0.37051030    -0.26450
C126        C  0.12397313  0.12781142  0.37917457    -0.15690
C127        C  0.14326530  0.11166127  0.41649874     0.36640
N128        N  0.18862672  0.12171885  0.42831013    -0.89940
H129        H  0.13444720  0.07346932  0.47159918     0.17760
H130        H  0.06512326  0.12842417  0.34116676     0.17750
N131        N  0.01092427  0.07767510  0.38068359    -0.88970
H132        H  0.18752233  0.13982237  0.45639824     0.35130
H133        H  0.20409043  0.14342207  0.40699554     0.40220
H134        H  0.99216020  0.10759254  0.37644884     0.39840
H135        H  0.99342279  0.05690284  0.40042219     0.34730
C136        C  0.11252246  0.44994445  0.08372240    -0.27000
C137        C  0.07826965  0.42781318  0.06156502    -0.15070
C138        C  0.07276140  0.37972967  0.06746846     0.35560
C139        C  0.09922968  0.35682308  0.09700118    -0.26450
C140        C  0.13167888  0.37972855  0.12035154    -0.15690
C141        C  0.13938148  0.42666651  0.11274387     0.36640
N142        N  0.17357022  0.45101489  0.13502094    -0.89940
H143        H  0.11854443  0.48592168  0.07819741     0.17760
H144        H  0.09408140  0.32053798  0.10208876     0.17750
N145        N  0.04129819  0.35360874  0.04339408    -0.88970
H146        H  0.17268000  0.48590364  0.12764453     0.35130
H147        H  0.20442845  0.43877229  0.12445092     0.40220
H148        H  0.00928049  0.36145900  0.05406248     0.39840
H149        H  0.04556393  0.31847754  0.04843726     0.34730
C150        C  0.39070067  0.08544497  0.13971477    -0.27000
C151        C  0.37127605  0.12532482  0.12448805    -0.15070
C152        C  0.37604646  0.13644199  0.08211493     0.35560
C153        C  0.40144153  0.10744027  0.05646836    -0.26450
C154        C  0.42377389  0.06774562  0.07150148    -0.15690
C155        C  0.41614997  0.05617661  0.11472893     0.36640
N156        N  0.42953915  0.01474122  0.13548995    -0.89940
H157        H  0.38546151  0.07630659  0.17214390     0.17760
H158        H  0.40244867  0.11566316  0.02375815     0.17750
N159        N  0.35517675  0.17612597  0.06377727    -0.88970
H160        H  0.44929789  0.02333535  0.16122069     0.35130
H161        H  0.44832716  0.99311747  0.11772647     0.40220
H162        H  0.33715018  0.19493325  0.08575816     0.39840
H163        H  0.33204313  0.16464528  0.04170615     0.34730
C164        C  0.10004114  0.09022429  0.13732187    -0.27000
C165        C  0.12626777  0.12573711  0.12201691    -0.15070
C166        C  0.12461200  0.13641078  0.07915005     0.35560
C167        C  0.09833055  0.10942255  0.05251087    -0.26450
C168        C  0.07319775  0.07184372  0.06713985    -0.15690
C169        C  0.07289639  0.06419939  0.11113890     0.36640
N170        N  0.04336843  0.03313797  0.13137768    -0.89940
H171        H  0.09961064  0.08338988  0.17055938     0.17760
H172        H  0.09726167  0.11849030  0.01992414     0.17750
N173        N  0.14951087  0.17360830  0.06137074    -0.88970
H174        H  0.05152479  0.99950167  0.12382067     0.35130
H175        H  0.01103728  0.04144531  0.12203892     0.40220
H176        H  0.16834732  0.19073264  0.08383998     0.39840
H177        H  0.12647772  0.19733934  0.04952316     0.34730
N178        N  0.19867137  0.33740598  0.70282733    -0.06800
N179        N  0.19213220  0.36849706  0.67363176    -0.58920
N180        N  0.16334253  0.30638652  0.79640398    -0.06480
N181        N  0.13101833  0.31676254  0.82277487    -0.61050
N182        N  0.19501734  0.33753288  0.79768740    -0.06080
N183        N  0.18501474  0.36962701  0.82510948    -0.58900
N184        N  0.16739752  0.30597419  0.70138087    -0.05760
N185        N  0.13896627  0.31503928  0.67096961    -0.61400
C186        C  0.15490645  0.35409642  0.65381837     0.95370
C187        C  0.14517185  0.35609660  0.84044203     0.95150
N188        N  0.19479335  0.16576940  0.79845632    -0.06990
N189        N  0.18711382  0.13650301  0.82899859    -0.59500
N190        N  0.16599934  0.19818537  0.70112960    -0.05110
N191        N  0.13730269  0.19100787  0.67051148    -0.60750
N192        N  0.19636906  0.16549940  0.70223926    -0.07020
N193        N  0.18880502  0.13524271  0.67249383    -0.59770
N194        N  0.16355464  0.19767808  0.79735914    -0.04750
N195        N  0.13381306  0.19052827  0.82700728    -0.60840
Mn196      Mn  0.16371596  0.25188928  0.74906272     1.18440
C197        C  0.14930754  0.15270575  0.84687980     0.97460
C198        C  0.15240291  0.15209125  0.65250901     0.98120
N199        N  0.30105550  0.33556126  0.80075821    -0.07040
N200        N  0.30902184  0.36642536  0.82979692    -0.63350
N201        N  0.33388916  0.30317884  0.70583560    -0.05840
N202        N  0.36337906  0.30930842  0.67591567    -0.64020
N203        N  0.30311878  0.33542414  0.70478659    -0.06540
N204        N  0.31090602  0.36417879  0.67385661    -0.63610
N205        N  0.33206502  0.30347965  0.80135225    -0.05440
N206        N  0.36179881  0.31203724  0.83076043    -0.64300
Mn207      Mn  0.24958836  0.33774453  0.75172761     1.10660
C208        C  0.34681783  0.35124183  0.84856752     0.98680
C209        C  0.34830277  0.34703253  0.65586041     0.98760
N210        N  0.30111647  0.16509147  0.70399156    -0.06550
N211        N  0.30803983  0.13612008  0.67314460    -0.61920
N212        N  0.33145962  0.19510739  0.80092606    -0.05870
N213        N  0.36099011  0.18612078  0.83051201    -0.58650
N214        N  0.30044034  0.16335318  0.79997918    -0.07180
N215        N  0.30843114  0.13199358  0.82879133    -0.61490
N216        N  0.33236538  0.19660506  0.70458461    -0.06170
N217        N  0.36108572  0.18986273  0.67394663    -0.58680
Mn218      Mn  0.24814776  0.16344233  0.75129709     1.20190
Mn219      Mn  0.33378863  0.24952536  0.75341465     1.10090
Cl220      Cl  0.24872057  0.25064974  0.75179785    -0.86650
C221        C  0.34499092  0.15250934  0.65418777     0.95690
C222        C  0.34623870  0.14667035  0.84776295     0.95480
C223        C  0.45047650  0.45681498  0.97085067    -0.03170
C224        C  0.44915603  0.04289192  0.97309992    -0.03170
C225        C  0.04817448  0.45935699  0.96738401    -0.03170
C226        C  0.04611613  0.04439936  0.96891150    -0.03170
C227        C  0.02093853  0.00153240  0.95276365    -0.00120
C228        C  0.47444356  0.00052326  0.95449672    -0.00120
C229        C  0.45289352  0.45471769  0.53577455    -0.03170
C230        C  0.05022659  0.45687767  0.53133075    -0.03170
C231        C  0.47850972  0.43011947  0.50164925    -0.00120
C232        C  0.02313521  0.43131407  0.49937111    -0.00120
C233        C  0.04801246  0.04223602  0.53483425    -0.03170
C234        C  0.47813288  0.99728741  0.55178139    -0.00120
C235        C  0.02434228  0.99827718  0.54978095    -0.00120
C236        C  0.07874340  0.47924903  0.49926171    -0.00120
C237        C  0.07728651  0.02390000  0.50093205    -0.00070
C238        C  0.47601716  0.06763969  0.50584578    -0.00120
C239        C  0.02040022  0.06889809  0.50358477    -0.00120
C240        C  0.45089693  0.03991734  0.53860536    -0.03170
C241        C  0.42199599  0.47629201  0.50463101    -0.00120
C242        C  0.42052935  0.02111751  0.50582442    -0.00120
C243        C  0.41753162  0.36810758  0.88614439    -0.27000
C244        C  0.37170325  0.37680049  0.88108706    -0.15070
C245        C  0.35102619  0.40924591  0.90742681     0.35560
C246        C  0.37652832  0.43263314  0.93691555    -0.26450
C247        C  0.42341972  0.42699381  0.94009153    -0.15690
C248        C  0.44335265  0.39201583  0.91560472     0.36640
N249        N  0.48885614  0.37835410  0.92230569    -0.89940
H250        H  0.43345985  0.34208087  0.86717444     0.17760
H251        H  0.35892938  0.45675199  0.95658961     0.17750
N252        N  0.30409796  0.41910807  0.90559934    -0.88970
H253        H  0.49955237  0.35593650  0.89892626     0.35130
H254        H  0.48980116  0.35935877  0.94990904     0.40220
H255        H  0.28640729  0.38858333  0.90925663     0.39840
H256        H  0.29656346  0.43365962  0.87666031     0.34730
C257        C  0.40192570  0.14420559  0.90566059    -0.27000
C258        C  0.37087048  0.12108408  0.88070882    -0.15070
C259        C  0.36603262  0.07358826  0.88600770     0.35560
C260        C  0.39160531  0.05060668  0.91613303    -0.26450
C261        C  0.42240920  0.07302942  0.94204069    -0.15690
C262        C  0.42792196  0.12130758  0.93568510     0.36640
N263        N  0.46116952  0.14832067  0.95630060    -0.89940
H264        H  0.40684894  0.18064367  0.90126548     0.17760
H265        H  0.38829174  0.01433048  0.91809794     0.17750
N266        N  0.33648362  0.04790729  0.85984975    -0.88970
H267        H  0.49280970  0.13469670  0.95051755     0.35130
H268        H  0.45508670  0.15011963  0.98818663     0.40220
H269        H  0.35534311  0.02303369  0.84426494     0.39840
H270        H  0.31354128  0.03104094  0.87894452     0.34730
C271        C  0.06113397  0.43574087  0.89193989    -0.27000
C272        C  0.07392190  0.43217965  0.93413367    -0.15070
C273        C  0.11080450  0.40318348  0.94416206     0.35560
C274        C  0.13343524  0.37948579  0.91274188    -0.26450
C275        C  0.11957863  0.38221419  0.87138657    -0.15690
C276        C  0.08251456  0.41012899  0.86071381     0.36640
N277        N  0.06588807  0.41382602  0.81875102    -0.89940
H278        H  0.03308213  0.45723391  0.88308244     0.17760
H279        H  0.16193805  0.35817586  0.92092544     0.17750
N280        N  0.12642033  0.39798790  0.98603598    -0.88970
H281        H  0.03341709  0.40070552  0.81847023     0.35130
H282        H  0.08449943  0.39398835  0.79799581     0.40220
H283        H  0.15966291  0.40883081  0.98735519     0.39840
H284        H  0.12571131  0.36317229  0.99363124     0.34730
C285        C  0.41939120  0.37761097  0.63084083    -0.27000
C286        C  0.37404522  0.37069016  0.62333820    -0.15070
C287        C  0.35480801  0.38806229  0.58649501     0.35560
C288        C  0.38127795  0.41367332  0.55918396    -0.26450
C289        C  0.42698388  0.42385223  0.56729674    -0.15690
C290        C  0.44573829  0.40458782  0.60465284     0.36640
N291        N  0.49040466  0.41252636  0.61898959    -0.89940
H292        H  0.43428156  0.36402118  0.65915567     0.17760
H293        H  0.36480499  0.42544165  0.53114850     0.17750
N294        N  0.30895876  0.37987595  0.57509215    -0.88970
H295        H  0.48863104  0.42744464  0.64856833     0.35130
H296        H  0.50580193  0.43648371  0.60073903     0.40220
H297        H  0.29301326  0.35844531  0.59632283     0.39840
H298        H  0.30904380  0.36212830  0.54680000     0.34730
C299        C  0.11746296  0.08518185  0.94380544    -0.27000
C300        C  0.07186571  0.07408290  0.93608189    -0.15070
C301        C  0.05372792  0.09005284  0.89711313     0.35560
C302        C  0.07959387  0.11721336  0.87051222    -0.26450
C303        C  0.12397321  0.12781356  0.87917630    -0.15690
C304        C  0.14326577  0.11166420  0.91650055     0.36640
N305        N  0.18862742  0.12172178  0.92831121    -0.89940
H306        H  0.13444776  0.07347386  0.97160200     0.17760
H307        H  0.06512338  0.12842526  0.84116853     0.17750
N308        N  0.01092586  0.07767506  0.88068485    -0.88970
H309        H  0.18752354  0.13982616  0.95639886     0.35130
H310        H  0.20409107  0.14342413  0.90699584     0.40220
H311        H  0.99216069  0.10759179  0.87645022     0.39840
H312        H  0.99342507  0.05690154  0.90042276     0.34730
C313        C  0.11251794  0.44994100  0.58371945    -0.27000
C314        C  0.07826454  0.42781046  0.56156266    -0.15070
C315        C  0.07275460  0.37972724  0.56746665     0.35560
C316        C  0.09922272  0.35682017  0.59699925    -0.26450
C317        C  0.13167259  0.37972531  0.62034926    -0.15690
C318        C  0.13937592  0.42666308  0.61274136     0.36640
N319        N  0.17356422  0.45101152  0.63501891    -0.89940
H320        H  0.11854097  0.48591794  0.57819396     0.17760
H321        H  0.09407374  0.32053525  0.60208717     0.17750
N322        N  0.04129033  0.35360712  0.54339266    -0.88970
H323        H  0.17267378  0.48590038  0.62764293     0.35130
H324        H  0.20442264  0.43876934  0.62444899     0.40220
H325        H  0.00927294  0.36145872  0.55406109     0.39840
H326        H  0.04555488  0.31847586  0.54843627     0.34730
C327        C  0.39070031  0.08544670  0.63971633    -0.27000
C328        C  0.37127634  0.12532701  0.62448994    -0.15070
C329        C  0.37604926  0.13644616  0.58211757     0.35560
C330        C  0.40144553  0.10744545  0.55647119    -0.26450
C331        C  0.42377607  0.06774944  0.57150366    -0.15690
C332        C  0.41615065  0.05617916  0.61473065     0.36640
N333        N  0.42953957  0.01474346  0.63549134    -0.89940
H334        H  0.38545977  0.07630730  0.67214503     0.17760
H335        H  0.40245423  0.11566977  0.52376135     0.17750
N336        N  0.35518027  0.17613076  0.56378026    -0.88970
H337        H  0.44929737  0.02333746  0.66122276     0.35130
H338        H  0.44832881  0.99312043  0.61772823     0.40220
H339        H  0.33715214  0.19493690  0.58576084     0.39840
H340        H  0.33204808  0.16465080  0.54170752     0.34730
C341        C  0.10004127  0.09022164  0.63732042    -0.27000
C342        C  0.12626812  0.12573427  0.62201559    -0.15070
C343        C  0.12461415  0.13640681  0.57914849     0.35560
C344        C  0.09833339  0.10941828  0.55250907    -0.26450
C345        C  0.07319933  0.07184042  0.56713811    -0.15690
C346        C  0.07289703  0.06419659  0.61113726     0.36640
N347        N  0.04336826  0.03313602  0.63137606    -0.89940
H348        H  0.09960977  0.08338787  0.67055802     0.17760
H349        H  0.09726536  0.11848563  0.51992226     0.17750
N350        N  0.14951381  0.17360382  0.56136926    -0.88970
H351        H  0.05152373  0.99949944  0.62381929     0.35130
H352        H  0.01103734  0.04144443  0.62203749     0.40220
H353        H  0.16834938  0.19072869  0.58383880     0.39840
H354        H  0.12648116  0.19733461  0.54952040     0.34730
N355        N  0.19867726  0.83740742  0.20282923    -0.06800
N356        N  0.19213844  0.86849924  0.17363422    -0.58920
N357        N  0.16334736  0.80638712  0.29640514    -0.06480
N358        N  0.13102144  0.81676439  0.32277375    -0.61050
N359        N  0.19502224  0.83753340  0.29768913    -0.06080
N360        N  0.18501774  0.86962884  0.32510952    -0.58900
N361        N  0.16740317  0.80597594  0.20138238    -0.05760
N362        N  0.13897207  0.81504195  0.17097128    -0.61400
C363        C  0.15491257  0.85409931  0.15382063     0.95370
C364        C  0.14517359  0.85609926  0.34044018     0.95150
N365        N  0.19479600  0.66576930  0.29845686    -0.06990
N366        N  0.18711506  0.63650179  0.32899799    -0.59500
N367        N  0.16600270  0.69818705  0.20113027    -0.05110
N368        N  0.13730537  0.69101039  0.17051257    -0.60750
N369        N  0.19637148  0.66550019  0.20223967    -0.07020
N370        N  0.18880605  0.63524362  0.17249440    -0.59770
N371        N  0.16355768  0.69767839  0.29735982    -0.04750
N372        N  0.13381499  0.69052772  0.32700691    -0.60840
Mn373      Mn  0.16372055  0.75189038  0.24906376     1.18440
C374        C  0.14930829  0.65270417  0.34687867     0.97460
C375        C  0.15240406  0.65209324  0.15250999     0.98120
N376        N  0.30106069  0.83555967  0.30075872    -0.07040
N377        N  0.30902566  0.86642329  0.32979790    -0.63350
N378        N  0.33389400  0.80317788  0.20583573    -0.05840
N379        N  0.36338322  0.80930707  0.17591518    -0.64020
N380        N  0.30312410  0.83542369  0.20478761    -0.06540
N381        N  0.31091101  0.86417835  0.17385756    -0.63610
N382        N  0.33207096  0.80347883  0.30135235    -0.05440
N383        N  0.36180418  0.81203670  0.33076107    -0.64300
Mn384      Mn  0.24959385  0.83774432  0.25172907     1.10660
C385        C  0.34682151  0.85124053  0.34856866     0.98680
C386        C  0.34830698  0.84703150  0.15586043     0.98760
N387        N  0.30111894  0.66509091  0.20399129    -0.06550
N388        N  0.30804084  0.63611969  0.17314390    -0.61920
N389        N  0.33146334  0.69510696  0.30092540    -0.05870
N390        N  0.36099288  0.68612125  0.33051229    -0.58650
N391        N  0.30044330  0.66335349  0.29997913    -0.07180
N392        N  0.30843257  0.63199529  0.32879278    -0.61490
N393        N  0.33236861  0.69660377  0.20458395    -0.06170
N394        N  0.36108808  0.68986087  0.17394527    -0.58680
Mn395      Mn  0.24815054  0.66344236  0.25129733     1.20190
Mn396      Mn  0.33379344  0.74952435  0.25341429     1.10090
Cl397      Cl  0.24872513  0.75064964  0.25179862    -0.86650
C398        C  0.34499186  0.65250808  0.15418634     0.95690
C399        C  0.34624002  0.64667216  0.34776445     0.95480
C400        C  0.45047160  0.95681816  0.47085241    -0.03170
C401        C  0.44915470  0.54289486  0.47310175    -0.03170
C402        C  0.04816932  0.95935534  0.46738191    -0.03170
C403        C  0.04611470  0.54439796  0.46890988    -0.03170
C404        C  0.02093481  0.50153217  0.45276252    -0.00120
C405        C  0.47443983  0.50052523  0.45449762    -0.00120
C406        C  0.45289741  0.95471488  0.03577333    -0.03170
C407        C  0.05023047  0.95687935  0.03133273    -0.03170
C408        C  0.47851528  0.93011739  0.00164850    -0.00120
C409        C  0.02314077  0.93131438  0.99937218    -0.00120
C410        C  0.04801227  0.54223797  0.03483589    -0.03170
C411        C  0.47813432  0.49728587  0.05178078    -0.00120
C412        C  0.02434375  0.49827788  0.04978218    -0.00120
C413        C  0.07874694  0.97925214  0.99926435    -0.00120
C414        C  0.07728799  0.52390309  0.00093452    -0.00070
C415        C  0.47601650  0.56763781  0.00584493    -0.00120
C416        C  0.02039957  0.56889848  0.00358547    -0.00120
C417        C  0.45089663  0.53991443  0.03860387    -0.03170
C418        C  0.42200010  0.97628778  0.00462901    -0.00120
C419        C  0.42053101  0.52111318  0.00582208    -0.00120
C420        C  0.41753237  0.86810811  0.38614827    -0.27000
C421        C  0.37170427  0.87679970  0.38108921    -0.15070
C422        C  0.35102492  0.90924521  0.40742759     0.35560
C423        C  0.37652506  0.93263413  0.43691664    -0.26450
C424        C  0.42341633  0.92699635  0.44009359    -0.15690
C425        C  0.44335131  0.89201824  0.41560841     0.36640
N426        N  0.48885449  0.87835715  0.42231189    -0.89940
H427        H  0.43346211  0.84208107  0.36717976     0.17760
H428        H  0.35892495  0.95675254  0.45659029     0.17750
N429        N  0.30409644  0.91910577  0.40559832    -0.88970
H430        H  0.49955404  0.85594381  0.39893043     0.35130
H431        H  0.48979678  0.85935713  0.44991269     0.40220
H432        H  0.28640656  0.88858048  0.40925517     0.39840
H433        H  0.29656266  0.93365706  0.37665903     0.34730
C434        C  0.40192710  0.64420838  0.40566169    -0.27000
C435        C  0.37087048  0.62108693  0.38071135    -0.15070
C436        C  0.36603021  0.57359174  0.38601221     0.35560
C437        C  0.39160211  0.55061054  0.41613797    -0.26450
C438        C  0.42240827  0.57303288  0.44204335    -0.15690
C439        C  0.42792318  0.62131046  0.43568626     0.36640
N440        N  0.46117262  0.64832269  0.45630012    -0.89940
H441        H  0.40685188  0.68064602  0.40126506     0.17760
H442        H  0.38828615  0.51433470  0.41810502     0.17750
N443        N  0.33647974  0.54791082  0.35985568    -0.88970
H444        H  0.49281199  0.63469697  0.45051664     0.35130
H445        H  0.45509094  0.65012283  0.48818628     0.40220
H446        H  0.35533796  0.52303557  0.34427168     0.39840
H447        H  0.31353689  0.53104647  0.37895138     0.34730
C448        C  0.06113346  0.93574405  0.39193608    -0.27000
C449        C  0.07391623  0.93217748  0.43413103    -0.15070
C450        C  0.11079531  0.90317703  0.44416034     0.35560
C451        C  0.13342862  0.87948160  0.41274044    -0.26450
C452        C  0.11957851  0.88221671  0.37138377    -0.15690
C453        C  0.08251728  0.91013502  0.36070959     0.36640
N454        N  0.06589713  0.91383838  0.31874508    -0.89940
H455        H  0.03308411  0.95724007  0.38307773     0.17760
H456        H  0.16192857  0.85816825  0.42092529     0.17750
N457        N  0.12640534  0.89797489  0.48603534    -0.88970
H458        H  0.03342547  0.90071975  0.31845871     0.35130
H459        H  0.08451054  0.89400217  0.29799027     0.40220
H460        H  0.15964848  0.90881533  0.48735950     0.39840
H461        H  0.12569306  0.86315833  0.49362664     0.34730
C462        C  0.41939516  0.87760932  0.13084025    -0.27000
C463        C  0.37404910  0.87068885  0.12333792    -0.15070
C464        C  0.35481171  0.88806078  0.08649474     0.35560
C465        C  0.38128189  0.91367054  0.05918292    -0.26450
C466        C  0.42698794  0.92384917  0.06729537    -0.15690
C467        C  0.44574223  0.90458570  0.10465193     0.36640
N468        N  0.49040819  0.91252543  0.11898922    -0.89940
H469        H  0.43428550  0.86402002  0.15915529     0.17760
H470        H  0.36480882  0.92543860  0.03114743     0.17750
N471        N  0.30896198  0.87987578  0.07509278    -0.88970
H472        H  0.48863377  0.92744433  0.14856767     0.35130
H473        H  0.50580520  0.93648281  0.10073855     0.40220
H474        H  0.29301607  0.85844639  0.09632423     0.39840
H475        H  0.30904588  0.86212738  0.04680102     0.34730
C476        C  0.11746234  0.58517839  0.44380307    -0.27000
C477        C  0.07186478  0.57408067  0.43607984    -0.15070
C478        C  0.05372707  0.59005146  0.39711130     0.35560
C479        C  0.07959360  0.61721168  0.37051034    -0.26450
C480        C  0.12397314  0.62781144  0.37917460    -0.15690
C481        C  0.14326531  0.61166129  0.41649877     0.36640
N482        N  0.18862674  0.62171888  0.42831016    -0.89940
H483        H  0.13444720  0.57346936  0.47159923     0.17760
H484        H  0.06512326  0.62842419  0.34116679     0.17750
N485        N  0.01092428  0.57767511  0.38068362    -0.88970
H486        H  0.18752235  0.63982240  0.45639826     0.35130
H487        H  0.20409044  0.64342208  0.40699555     0.40220
H488        H  0.99216020  0.60759255  0.37644889     0.39840
H489        H  0.99342282  0.55690283  0.40042222     0.34730
C490        C  0.11252246  0.94994446  0.08372243    -0.27000
C491        C  0.07826965  0.92781318  0.06156505    -0.15070
C492        C  0.07276141  0.87972968  0.06746850     0.35560
C493        C  0.09922969  0.85682309  0.09700122    -0.26450
C494        C  0.13167889  0.87972857  0.12035158    -0.15690
C495        C  0.13938148  0.92666653  0.11274391     0.36640
N496        N  0.17357022  0.95101491  0.13502097    -0.89940
H497        H  0.11854442  0.98592169  0.07819744     0.17760
H498        H  0.09408142  0.82053800  0.10208880     0.17750
N499        N  0.04129820  0.85360874  0.04339412    -0.88970
H500        H  0.17267999  0.98590366  0.12764456     0.35130
H501        H  0.20442846  0.93877231  0.12445096     0.40220
H502        H  0.00928050  0.86145901  0.05406251     0.39840
H503        H  0.04556394  0.81847755  0.04843731     0.34730
C504        C  0.39070060  0.58544492  0.13971475    -0.27000
C505        C  0.37127603  0.62532480  0.12448805    -0.15070
C506        C  0.37604651  0.63644203  0.08211496     0.35560
C507        C  0.40144159  0.60744033  0.05646838    -0.26450
C508        C  0.42377391  0.56774565  0.07150148    -0.15690
C509        C  0.41614994  0.55617659  0.11472892     0.36640
N510        N  0.42953913  0.51474120  0.13548993    -0.89940
H511        H  0.38546140  0.57630651  0.17214387     0.17760
H512        H  0.40244878  0.61566327  0.02375818     0.17750
N513        N  0.35517684  0.67612605  0.06377731    -0.88970
H514        H  0.44929781  0.52333534  0.16122070     0.35130
H515        H  0.44832722  0.49311750  0.11772647     0.40220
H516        H  0.33715024  0.69493330  0.08575820     0.39840
H517        H  0.33204325  0.66464541  0.04170614     0.34730
C518        C  0.10004115  0.59022427  0.13732187    -0.27000
C519        C  0.12626777  0.62573711  0.12201692    -0.15070
C520        C  0.12461199  0.63641078  0.07915006     0.35560
C521        C  0.09833055  0.60942255  0.05251087    -0.26450
C522        C  0.07319776  0.57184372  0.06713984    -0.15690
C523        C  0.07289640  0.56419938  0.11113889     0.36640
N524        N  0.04336843  0.53313796  0.13137766    -0.89940
H525        H  0.09961064  0.58338986  0.17055938     0.17760
H526        H  0.09726167  0.61849031  0.01992414     0.17750
N527        N  0.14951086  0.67360832  0.06137075    -0.88970
H528        H  0.05152480  0.49950165  0.12382064     0.35130
H529        H  0.01103729  0.54144530  0.12203891     0.40220
H530        H  0.16834730  0.69073266  0.08383999     0.39840
H531        H  0.12647769  0.69733935  0.04952318     0.34730
N532        N  0.19867131  0.83740600  0.70282731    -0.06800
N533        N  0.19213213  0.86849707  0.67363173    -0.58920
N534        N  0.16334248  0.80638655  0.79640397    -0.06480
N535        N  0.13101829  0.81676255  0.82277487    -0.61050
N536        N  0.19501728  0.83753292  0.79768738    -0.06080
N537        N  0.18501469  0.86962704  0.82510947    -0.58900
N538        N  0.16739746  0.80597421  0.70138086    -0.05760
N539        N  0.13896621  0.81503929  0.67096959    -0.61400
C540        C  0.15490639  0.85409642  0.65381834     0.95370
C541        C  0.14517181  0.85609661  0.84044203     0.95150
N542        N  0.19479333  0.66576944  0.79845630    -0.06990
N543        N  0.18711381  0.63650305  0.82899858    -0.59500
N544        N  0.16599932  0.69818541  0.70112959    -0.05110
N545        N  0.13730267  0.69100792  0.67051147    -0.60750
N546        N  0.19636905  0.66549945  0.70223925    -0.07020
N547        N  0.18880502  0.63524277  0.67249380    -0.59770
N548        N  0.16355462  0.69767811  0.79735912    -0.04750
N549        N  0.13381305  0.69052829  0.82700727    -0.60840
Mn550      Mn  0.16371592  0.75188931  0.74906271     1.18440
C551        C  0.14930753  0.65270578  0.84687979     0.97460
C552        C  0.15240291  0.65209130  0.65250898     0.98120
N553        N  0.30105545  0.83556132  0.80075820    -0.07040
N554        N  0.30902180  0.86642541  0.82979692    -0.63350
N555        N  0.33388910  0.80317889  0.70583558    -0.05840
N556        N  0.36337900  0.80930848  0.67591566    -0.64020
N557        N  0.30311873  0.83542419  0.70478657    -0.06540
N558        N  0.31090596  0.86417884  0.67385660    -0.63610
N559        N  0.33206496  0.80347970  0.80135223    -0.05440
N560        N  0.36179875  0.81203728  0.83076041    -0.64300
Mn561      Mn  0.24958830  0.83774458  0.75172759     1.10660
C562        C  0.34681779  0.85124187  0.84856751     0.98680
C563        C  0.34830272  0.84703258  0.65586039     0.98760
N564        N  0.30111646  0.66509152  0.70399153    -0.06550
N565        N  0.30803981  0.63612013  0.67314458    -0.61920
N566        N  0.33145960  0.69510745  0.80092604    -0.05870
N567        N  0.36099009  0.68612084  0.83051199    -0.58650
N568        N  0.30044032  0.66335323  0.79997916    -0.07180
N569        N  0.30843113  0.63199363  0.82879132    -0.61490
N570        N  0.33236536  0.69660512  0.70458458    -0.06170
N571        N  0.36108570  0.68986279  0.67394660    -0.58680
Mn572      Mn  0.24814775  0.66344237  0.75129707     1.20190
Mn573      Mn  0.33378859  0.74952542  0.75341463     1.10090
Cl574      Cl  0.24872053  0.75064979  0.75179784    -0.86650
C575        C  0.34499091  0.65250939  0.65418774     0.95690
C576        C  0.34623869  0.64667041  0.84776293     0.95480
C577        C  0.45047656  0.95681493  0.97085068    -0.03170
C578        C  0.44915601  0.54289197  0.97309991    -0.03170
C579        C  0.04817447  0.95935699  0.96738404    -0.03170
C580        C  0.04611614  0.54439936  0.96891148    -0.03170
C581        C  0.02093853  0.50153240  0.95276363    -0.00120
C582        C  0.47444351  0.50052329  0.95449670    -0.00120
C583        C  0.45289349  0.95471771  0.53577453    -0.03170
C584        C  0.05022655  0.95687765  0.53133071    -0.03170
C585        C  0.47850967  0.93011948  0.50164923    -0.00120
C586        C  0.02313515  0.93131407  0.49937108    -0.00120
C587        C  0.04801246  0.54223603  0.53483428    -0.03170
C588        C  0.47813287  0.49728740  0.55178141    -0.00120
C589        C  0.02434230  0.49827719  0.54978099    -0.00120
C590        C  0.07874336  0.97924900  0.49926167    -0.00120
C591        C  0.07728652  0.52390002  0.50093209    -0.00070
C592        C  0.47601713  0.56763967  0.50584579    -0.00120
C593        C  0.02040021  0.56889808  0.50358479    -0.00120
C594        C  0.45089690  0.53991732  0.53860537    -0.03170
C595        C  0.42199596  0.97629206  0.50463101    -0.00120
C596        C  0.42052935  0.52111746  0.50582442    -0.00120
C597        C  0.41753161  0.86810758  0.88614437    -0.27000
C598        C  0.37170324  0.87680050  0.88108705    -0.15070
C599        C  0.35102621  0.90924593  0.90742682     0.35560
C600        C  0.37652835  0.93263312  0.93691556    -0.26450
C601        C  0.42341976  0.92699378  0.94009154    -0.15690
C602        C  0.44335266  0.89201580  0.91560470     0.36640
N603        N  0.48885616  0.87835406  0.92230563    -0.89940
H604        H  0.43345982  0.84208088  0.86717439     0.17760
H605        H  0.35892943  0.95675198  0.95658964     0.17750
N606        N  0.30409798  0.91910811  0.90559936    -0.88970
H607        H  0.49955235  0.85593642  0.89892623     0.35130
H608        H  0.48980121  0.85935879  0.94990901     0.40220
H609        H  0.28640730  0.88858338  0.90925665     0.39840
H610        H  0.29656348  0.93365967  0.87666034     0.34730
C611        C  0.40192572  0.64420565  0.90566056    -0.27000
C612        C  0.37087047  0.62108414  0.88070881    -0.15070
C613        C  0.36603257  0.57358834  0.88600773     0.35560
C614        C  0.39160525  0.55060675  0.91613307    -0.26450
C615        C  0.42240919  0.57302948  0.94204068    -0.15690
C616        C  0.42792198  0.62130763  0.93568507     0.36640
N617        N  0.46116957  0.64832070  0.95630054    -0.89940
H618        H  0.40684899  0.68064372  0.90126542     0.17760
H619        H  0.38829164  0.51433056  0.91809801     0.17750
N620        N  0.33648353  0.54790737  0.85984981    -0.88970
H621        H  0.49280974  0.63469670  0.95051750     0.35130
H622        H  0.45508676  0.65011968  0.98818657     0.40220
H623        H  0.35534299  0.52303374  0.84426501     0.39840
H624        H  0.31354118  0.53104105  0.87894460     0.34730
C625        C  0.06113395  0.93574087  0.89193991    -0.27000
C626        C  0.07392188  0.93217965  0.93413369    -0.15070
C627        C  0.11080448  0.90318347  0.94416208     0.35560
C628        C  0.13343522  0.87948578  0.91274189    -0.26450
C629        C  0.11957860  0.88221419  0.87138659    -0.15690
C630        C  0.08251453  0.91012900  0.86071383     0.36640
N631        N  0.06588805  0.91382604  0.81875105    -0.89940
H632        H  0.03308212  0.95723392  0.88308247     0.17760
H633        H  0.16193802  0.85817584  0.92092545     0.17750
N634        N  0.12642031  0.89798789  0.98603600    -0.88970
H635        H  0.03341706  0.90070555  0.81847025     0.35130
H636        H  0.08449940  0.89398838  0.79799583     0.40220
H637        H  0.15966289  0.90883079  0.98735520     0.39840
H638        H  0.12571129  0.86317227  0.99363126     0.34730
C639        C  0.41939117  0.87761096  0.63084079    -0.27000
C640        C  0.37404517  0.87069021  0.62333818    -0.15070
C641        C  0.35480795  0.88806237  0.58649502     0.35560
C642        C  0.38127789  0.91367341  0.55918396    -0.26450
C643        C  0.42698384  0.92385227  0.56729673    -0.15690
C644        C  0.44573825  0.90458781  0.60465280     0.36640
N645        N  0.49040464  0.91252630  0.61898952    -0.89940
H646        H  0.43428153  0.86402114  0.65915561     0.17760
H647        H  0.36480492  0.92544178  0.53114853     0.17750
N648        N  0.30895869  0.87987607  0.57509217    -0.88970
H649        H  0.48863107  0.92744453  0.64856828     0.35130
H650        H  0.50580191  0.93648367  0.60073899     0.40220
H651        H  0.29301319  0.85844541  0.59632283     0.39840
H652        H  0.30904371  0.86212845  0.54680000     0.34730
C653        C  0.11746296  0.58518188  0.94380543    -0.27000
C654        C  0.07186571  0.57408291  0.93608188    -0.15070
C655        C  0.05372793  0.59005285  0.89711311     0.35560
C656        C  0.07959387  0.61721336  0.87051220    -0.26450
C657        C  0.12397321  0.62781357  0.87917629    -0.15690
C658        C  0.14326577  0.61166423  0.91650054     0.36640
N659        N  0.18862741  0.62172181  0.92831120    -0.89940
H660        H  0.13444776  0.57347389  0.97160199     0.17760
H661        H  0.06512339  0.62842526  0.84116851     0.17750
N662        N  0.01092587  0.57767506  0.88068483    -0.88970
H663        H  0.18752353  0.63982620  0.95639885     0.35130
H664        H  0.20409106  0.64342416  0.90699583     0.40220
H665        H  0.99216069  0.60759179  0.87645019     0.39840
H666        H  0.99342507  0.55690155  0.90042275     0.34730
C667        C  0.11251788  0.94994098  0.58371941    -0.27000
C668        C  0.07826449  0.92781044  0.56156261    -0.15070
C669        C  0.07275454  0.87972721  0.56746660     0.35560
C670        C  0.09922267  0.85682015  0.59699921    -0.26450
C671        C  0.13167252  0.87972530  0.62034923    -0.15690
C672        C  0.13937583  0.92666307  0.61274133     0.36640
N673        N  0.17356411  0.95101152  0.63501892    -0.89940
H674        H  0.11854090  0.98591792  0.57819392     0.17760
H675        H  0.09407369  0.82053522  0.60208711     0.17750
N676        N  0.04129028  0.85360710  0.54339259    -0.88970
H677        H  0.17267365  0.98590039  0.62764295     0.35130
H678        H  0.20442254  0.93876938  0.62444900     0.40220
H679        H  0.00927289  0.86145870  0.55406101     0.39840
H680        H  0.04555483  0.81847583  0.54843620     0.34730
C681        C  0.39070036  0.58544679  0.63971634    -0.27000
C682        C  0.37127634  0.62532706  0.62448992    -0.15070
C683        C  0.37604916  0.63644612  0.58211752     0.35560
C684        C  0.40144542  0.60744539  0.55647114    -0.26450
C685        C  0.42377602  0.56774942  0.57150365    -0.15690
C686        C  0.41615066  0.55617921  0.61473066     0.36640
N687        N  0.42953957  0.51474352  0.63549136    -0.89940
H688        H  0.38545988  0.57630744  0.67214506     0.17760
H689        H  0.40245406  0.61566965  0.52376129     0.17750
N690        N  0.35518010  0.67613067  0.56378018    -0.88970
H691        H  0.44929744  0.52333751  0.66122273     0.35130
H692        H  0.44832870  0.49312042  0.61772822     0.40220
H693        H  0.33715200  0.69493684  0.58576076     0.39840
H694        H  0.33204788  0.66465064  0.54170750     0.34730
C695        C  0.10004128  0.59022168  0.63732042    -0.27000
C696        C  0.12626811  0.62573433  0.62201559    -0.15070
C697        C  0.12461410  0.63640688  0.57914849     0.35560
C698        C  0.09833333  0.60941834  0.55250908    -0.26450
C699        C  0.07319931  0.57184046  0.56713813    -0.15690
C700        C  0.07289704  0.56419662  0.61113727     0.36640
N701        N  0.04336830  0.53313603  0.63137608    -0.89940
H702        H  0.09960981  0.58338790  0.67055802     0.17760
H703        H  0.09726528  0.61848569  0.51992227     0.17750
N704        N  0.14951372  0.67360391  0.56136925    -0.88970
H705        H  0.05152379  0.49949946  0.62381931     0.35130
H706        H  0.01103737  0.54144441  0.62203752     0.40220
H707        H  0.16834930  0.69072878  0.58383878     0.39840
H708        H  0.12648105  0.69733469  0.54952041     0.34730
N709        N  0.69867716  0.33740746  0.20282928    -0.06800
N710        N  0.69213837  0.36849928  0.17363425    -0.58920
N711        N  0.66334728  0.30638715  0.29640520    -0.06480
N712        N  0.63102138  0.31676439  0.32277384    -0.61050
N713        N  0.69502216  0.33753343  0.29768918    -0.06080
N714        N  0.68501768  0.36962884  0.32510960    -0.58900
N715        N  0.66740307  0.30597599  0.20138243    -0.05760
N716        N  0.63897199  0.31504200  0.17097131    -0.61400
C717        C  0.65491251  0.35409934  0.15382066     0.95370
C718        C  0.64517354  0.35609925  0.34044028     0.95150
N719        N  0.69479594  0.16576934  0.29845689    -0.06990
N720        N  0.68711501  0.13650182  0.32899802    -0.59500
N721        N  0.66600263  0.19818710  0.20113031    -0.05110
N722        N  0.63730531  0.19101046  0.17051259    -0.60750
N723        N  0.69637141  0.16550024  0.20223971    -0.07020
N724        N  0.68880599  0.13524369  0.17249442    -0.59770
N725        N  0.66355761  0.19767842  0.29735986    -0.04750
N726        N  0.63381493  0.19052775  0.32700695    -0.60840
Mn727      Mn  0.66372046  0.25189041  0.24906380     1.18440
C728        C  0.64930824  0.15270420  0.34687871     0.97460
C729        C  0.65240401  0.15209332  0.15251000     0.98120
N730        N  0.80106061  0.33555969  0.30075874    -0.07040
N731        N  0.80902561  0.36642331  0.32979792    -0.63350
N732        N  0.83389389  0.30317791  0.20583574    -0.05840
N733        N  0.86338311  0.30930711  0.17591519    -0.64020
N734        N  0.80312400  0.33542373  0.20478763    -0.06540
N735        N  0.81091090  0.36417839  0.17385759    -0.63610
N736        N  0.83207087  0.30347885  0.30135235    -0.05440
N737        N  0.86180411  0.31203670  0.33076106    -0.64300
Mn738      Mn  0.74959376  0.33774435  0.25172911     1.10660
C739        C  0.84682147  0.35124054  0.34856866     0.98680
C740        C  0.84830687  0.34703155  0.15586045     0.98760
N741        N  0.80111887  0.16509093  0.20399131    -0.06550
N742        N  0.80804078  0.13611969  0.17314394    -0.61920
N743        N  0.83146328  0.19510700  0.30092541    -0.05870
N744        N  0.86099284  0.18612129  0.33051228    -0.58650
N745        N  0.80044324  0.16335353  0.29997915    -0.07180
N746        N  0.80843254  0.13199532  0.32879280    -0.61490
N747        N  0.83236853  0.19660380  0.20458396    -0.06170
N748        N  0.86108801  0.18986089  0.17394530    -0.58680
Mn749      Mn  0.74815047  0.16344240  0.25129736     1.20190
Mn750      Mn  0.83379335  0.24952438  0.25341429     1.10090
Cl751      Cl  0.74872505  0.25064967  0.25179865    -0.86650
C752        C  0.84499181  0.15250807  0.15418639     0.95690
C753        C  0.84623999  0.14667220  0.34776446     0.95480
C754        C  0.95047168  0.45681810  0.47085237    -0.03170
C755        C  0.94915473  0.04289488  0.47310171    -0.03170
C756        C  0.54816934  0.45935538  0.46738201    -0.03170
C757        C  0.54611466  0.04439797  0.46890990    -0.03170
C758        C  0.52093474  0.00153218  0.45276255    -0.00120
C759        C  0.97443982  0.00052524  0.45449756    -0.00120
C760        C  0.95289732  0.45471492  0.03577335    -0.03170
C761        C  0.55023051  0.45687938  0.03133268    -0.03170
C762        C  0.97851517  0.43011742  0.00164853    -0.00120
C763        C  0.52314082  0.43131441  0.99937213    -0.00120
C764        C  0.54801228  0.04223802  0.03483590    -0.03170
C765        C  0.97813429  0.99728586  0.05178084    -0.00120
C766        C  0.52434378  0.99827791  0.04978219    -0.00120
C767        C  0.57874698  0.47925218  0.99926432    -0.00120
C768        C  0.57728803  0.02390315  0.00093455    -0.00070
C769        C  0.97601649  0.06763780  0.00584499    -0.00120
C770        C  0.52039957  0.06889849  0.00358547    -0.00120
C771        C  0.95089662  0.03991443  0.03860393    -0.03170
C772        C  0.92200001  0.47628784  0.00462905    -0.00120
C773        C  0.92053098  0.02111318  0.00582215    -0.00120
C774        C  0.91753238  0.36810810  0.38614820    -0.27000
C775        C  0.87170426  0.37679969  0.38108918    -0.15070
C776        C  0.85102494  0.40924519  0.40742760     0.35560
C777        C  0.87652511  0.43263408  0.43691664    -0.26450
C778        C  0.92341639  0.42699630  0.44009354    -0.15690
C779        C  0.94335134  0.39201821  0.41560833     0.36640
N780        N  0.98885453  0.37835713  0.42231175    -0.89940
H781        H  0.93346209  0.34208108  0.36717966     0.17760
H782        H  0.85892502  0.45675248  0.45659030     0.17750
N783        N  0.80409646  0.41910575  0.40559838    -0.88970
H784        H  0.99955404  0.35594375  0.39893030     0.35130
H785        H  0.98979689  0.35935716  0.44991258     0.40220
H786        H  0.78640658  0.38858046  0.40925523     0.39840
H787        H  0.79656265  0.43365706  0.37665910     0.34730
C788        C  0.90192718  0.14420840  0.40566162    -0.27000
C789        C  0.87087048  0.12108697  0.38071134    -0.15070
C790        C  0.86603014  0.07359180  0.38601227     0.35560
C791        C  0.89160205  0.05061059  0.41613802    -0.26450
C792        C  0.92240829  0.07303291  0.44204333    -0.15690
C793        C  0.92792326  0.12131048  0.43568619     0.36640
N794        N  0.96117277  0.14832267  0.45629998    -0.89940
H795        H  0.90685201  0.18064602  0.40126494     0.17760
H796        H  0.88828601  0.01433476  0.41810513     0.17750
N797        N  0.83647959  0.04791088  0.35985580    -0.88970
H798        H  0.99281211  0.13469689  0.45051649     0.35130
H799        H  0.95509113  0.15012286  0.48818614     0.40220
H800        H  0.85533775  0.02303559  0.34427181     0.39840
H801        H  0.81353674  0.03104660  0.37895155     0.34730
C802        C  0.56113341  0.43574400  0.39193621    -0.27000
C803        C  0.57391624  0.43217751  0.43413115    -0.15070
C804        C  0.61079537  0.40317712  0.44416045     0.35560
C805        C  0.63342866  0.37948167  0.41274055    -0.26450
C806        C  0.61957848  0.38221669  0.37138389    -0.15690
C807        C  0.58251720  0.41013494  0.36070973     0.36640
N808        N  0.56589696  0.41383821  0.31874524    -0.89940
H809        H  0.53308402  0.45723997  0.38307787     0.17760
H810        H  0.66192865  0.35816836  0.42092538     0.17750
N811        N  0.62640546  0.39797505  0.48603544    -0.88970
H812        H  0.53342532  0.40071954  0.31845895     0.35130
H813        H  0.58451036  0.39400199  0.29799042     0.40220
H814        H  0.65964859  0.40881551  0.48735955     0.39840
H815        H  0.62569321  0.36315850  0.49362679     0.34730
C816        C  0.91939506  0.37760934  0.13084026    -0.27000
C817        C  0.87404900  0.37068890  0.12333795    -0.15070
C818        C  0.85481160  0.38806085  0.08649478     0.35560
C819        C  0.88128178  0.41367062  0.05918296    -0.26450
C820        C  0.92698784  0.42384922  0.06729540    -0.15690
C821        C  0.94574214  0.40458571  0.10465194     0.36640
N822        N  0.99040812  0.41252539  0.11898920    -0.89940
H823        H  0.93428541  0.36402001  0.15915529     0.17760
H824        H  0.86480871  0.42543871  0.03114748     0.17750
N825        N  0.80896187  0.37987586  0.07509282    -0.88970
H826        H  0.98863374  0.42744426  0.14856766     0.35130
H827        H  0.00580514  0.43648277  0.10073854     0.40220
H828        H  0.79301596  0.35844646  0.09632426     0.39840
H829        H  0.80904577  0.36212748  0.04680105     0.34730
C830        C  0.61746231  0.08517835  0.44380307    -0.27000
C831        C  0.57186474  0.07408066  0.43607985    -0.15070
C832        C  0.55372702  0.09005147  0.39711132     0.35560
C833        C  0.57959355  0.11721170  0.37051037    -0.26450
C834        C  0.62397309  0.12781145  0.37917463    -0.15690
C835        C  0.64326527  0.11166128  0.41649879     0.36640
N836        N  0.68862670  0.12171885  0.42831017    -0.89940
H837        H  0.63444718  0.07346931  0.47159922     0.17760
H838        H  0.56512321  0.12842423  0.34116683     0.17750
N839        N  0.51092424  0.07767513  0.38068364    -0.88970
H840        H  0.68752232  0.13982235  0.45639829     0.35130
H841        H  0.70409040  0.14342208  0.40699558     0.40220
H842        H  0.49216015  0.10759257  0.37644893     0.39840
H843        H  0.49342278  0.05690283  0.40042223     0.34730
C844        C  0.61252246  0.44994449  0.08372242    -0.27000
C845        C  0.57826967  0.42781321  0.06156502    -0.15070
C846        C  0.57276143  0.37972971  0.06746845     0.35560
C847        C  0.59922968  0.35682312  0.09700120    -0.26450
C848        C  0.63167885  0.37972860  0.12035158    -0.15690
C849        C  0.63938145  0.42666656  0.11274391     0.36640
N850        N  0.67357018  0.45101494  0.13502101    -0.89940
H851        H  0.61854442  0.48592172  0.07819743     0.17760
H852        H  0.59408140  0.32053802  0.10208878     0.17750
N853        N  0.54129824  0.35360876  0.04339405    -0.88970
H854        H  0.67267995  0.48590369  0.12764460     0.35130
H855        H  0.70442842  0.43877234  0.12445102     0.40220
H856        H  0.50928053  0.36145902  0.05406244     0.39840
H857        H  0.54556399  0.31847757  0.04843724     0.34730
C858        C  0.89070058  0.08544492  0.13971480    -0.27000
C859        C  0.87127599  0.12532480  0.12448810    -0.15070
C860        C  0.87604648  0.13644203  0.08211501     0.35560
C861        C  0.90144158  0.10744034  0.05646844    -0.26450
C862        C  0.92377390  0.06774566  0.07150154    -0.15690
C863        C  0.91614993  0.05617660  0.11472898     0.36640
N864        N  0.92953914  0.01474123  0.13549000    -0.89940
H865        H  0.88546137  0.07630652  0.17214392     0.17760
H866        H  0.90244877  0.11566328  0.02375824     0.17750
N867        N  0.85517680  0.17612604  0.06377736    -0.88970
H868        H  0.94929782  0.02333538  0.16122077     0.35130
H869        H  0.94832723  0.99311752  0.11772654     0.40220
H870        H  0.83715018  0.19493328  0.08575824     0.39840
H871        H  0.83204323  0.16464538  0.04170618     0.34730
C872        C  0.60004112  0.09022435  0.13732188    -0.27000
C873        C  0.62626772  0.12573720  0.12201693    -0.15070
C874        C  0.62461192  0.13641088  0.07915008     0.35560
C875        C  0.59833049  0.10942265  0.05251088    -0.26450
C876        C  0.57319773  0.07184379  0.06713986    -0.15690
C877        C  0.57289638  0.06419944  0.11113890     0.36640
N878        N  0.54336845  0.03313799  0.13137767    -0.89940
H879        H  0.59961063  0.08338992  0.17055938     0.17760
H880        H  0.59726160  0.11849041  0.01992415     0.17750
N881        N  0.64951077  0.17360844  0.06137078    -0.88970
H882        H  0.55152485  0.99950169  0.12382065     0.35130
H883        H  0.51103730  0.04144529  0.12203890     0.40220
H884        H  0.66834722  0.19073278  0.08384001     0.39840
H885        H  0.62647759  0.19733947  0.04952321     0.34730
N886        N  0.69867145  0.33740599  0.70282730    -0.06800
N887        N  0.69213226  0.36849708  0.67363174    -0.58920
N888        N  0.66334262  0.30638657  0.79640397    -0.06480
N889        N  0.63101843  0.31676260  0.82277486    -0.61050
N890        N  0.69501743  0.33753292  0.79768738    -0.06080
N891        N  0.68501485  0.36962706  0.82510946    -0.58900
N892        N  0.66739759  0.30597421  0.70138086    -0.05760
N893        N  0.63896632  0.31503931  0.67096962    -0.61400
C894        C  0.65490649  0.35409645  0.65381837     0.95370
C895        C  0.64517196  0.35609665  0.84044202     0.95150
N896        N  0.69479339  0.16576945  0.79845633    -0.06990
N897        N  0.68711385  0.13650307  0.82899861    -0.59500
N898        N  0.66599939  0.19818539  0.70112960    -0.05110
N899        N  0.63730274  0.19100790  0.67051149    -0.60750
N900        N  0.69636910  0.16549942  0.70223927    -0.07020
N901        N  0.68880505  0.13524273  0.67249385    -0.59770
N902        N  0.66355469  0.19767813  0.79735914    -0.04750
N903        N  0.63381311  0.19052834  0.82700729    -0.60840
Mn904      Mn  0.66371603  0.25188931  0.74906272     1.18440
C905        C  0.64930758  0.15270582  0.84687982     0.97460
C906        C  0.65240295  0.15209127  0.65250902     0.98120
N907        N  0.80105559  0.33556127  0.80075816    -0.07040
N908        N  0.80902193  0.36642536  0.82979688    -0.63350
N909        N  0.83388923  0.30317880  0.70583555    -0.05840
N910        N  0.86337912  0.30930836  0.67591561    -0.64020
N911        N  0.80311887  0.33542411  0.70478655    -0.06540
N912        N  0.81090610  0.36417874  0.67385655    -0.63610
N913        N  0.83206511  0.30347966  0.80135221    -0.05440
N914        N  0.86179889  0.31203725  0.83076040    -0.64300
Mn915      Mn  0.74958845  0.33774454  0.75172757     1.10660
C916        C  0.84681790  0.35124183  0.84856748     0.98680
C917        C  0.84830284  0.34703245  0.65586034     0.98760
N918        N  0.80111652  0.16509143  0.70399158    -0.06550
N919        N  0.80803987  0.13612001  0.67314465    -0.61920
N920        N  0.83145968  0.19510741  0.80092606    -0.05870
N921        N  0.86099016  0.18612080  0.83051202    -0.58650
N922        N  0.80044038  0.16335321  0.79997920    -0.07180
N923        N  0.80843116  0.13199363  0.82879137    -0.61490
N924        N  0.83236543  0.19660502  0.70458461    -0.06170
N925        N  0.86108578  0.18986265  0.67394663    -0.58680
Mn926      Mn  0.74814780  0.16344234  0.75129711     1.20190
Mn927      Mn  0.83378870  0.24952535  0.75341462     1.10090
Cl928      Cl  0.74872064  0.25064975  0.75179784    -0.86650
C929        C  0.84499098  0.15250924  0.65418781     0.95690
C930        C  0.84623872  0.14667040  0.84776298     0.95480
C931        C  0.95047646  0.45681497  0.97085071    -0.03170
C932        C  0.94915598  0.04289196  0.97309997    -0.03170
C933        C  0.54817453  0.45935702  0.96738399    -0.03170
C934        C  0.54611618  0.04439940  0.96891149    -0.03170
C935        C  0.52093861  0.00153242  0.95276363    -0.00120
C936        C  0.97444347  0.00052328  0.95449677    -0.00120
C937        C  0.95289357  0.45471764  0.53577449    -0.03170
C938        C  0.55022654  0.45687771  0.53133082    -0.03170
C939        C  0.97850976  0.43011943  0.50164918    -0.00120
C940        C  0.52313517  0.43131411  0.49937118    -0.00120
C941        C  0.54801244  0.04223604  0.53483430    -0.03170
C942        C  0.97813291  0.99728737  0.55178134    -0.00120
C943        C  0.52434225  0.99827722  0.54978101    -0.00120
C944        C  0.57874335  0.47924906  0.49926178    -0.00120
C945        C  0.57728648  0.02390001  0.50093210    -0.00070
C946        C  0.97601718  0.06763966  0.50584574    -0.00120
C947        C  0.52040020  0.06889811  0.50358481    -0.00120
C948        C  0.95089696  0.03991730  0.53860533    -0.03170
C949        C  0.92199604  0.47629198  0.50463097    -0.00120
C950        C  0.92052938  0.02111748  0.50582439    -0.00120
C951        C  0.91753165  0.36810755  0.88614445    -0.27000
C952        C  0.87170330  0.37680048  0.88108706    -0.15070
C953        C  0.85102621  0.40924592  0.90742679     0.35560
C954        C  0.87652831  0.43263313  0.93691555    -0.26450
C955        C  0.92341971  0.42699380  0.94009157    -0.15690
C956        C  0.94335265  0.39201579  0.91560480     0.36640
N957        N  0.98885611  0.37835402  0.92230583    -0.89940
H958        H  0.93345989  0.34208082  0.86717451     0.17760
H959        H  0.85892936  0.45675199  0.95658960     0.17750
N960        N  0.80409798  0.41910809  0.90559926    -0.88970
H961        H  0.99955238  0.35593643  0.89892641     0.35130
H962        H  0.98980107  0.35935868  0.94990918     0.40220
H963        H  0.78640730  0.38858336  0.90925654     0.39840
H964        H  0.79656353  0.43365964  0.87666022     0.34730
C965        C  0.90192572  0.14420565  0.90566063    -0.27000
C966        C  0.87087048  0.12108414  0.88070887    -0.15070
C967        C  0.86603258  0.07358834  0.88600778     0.35560
C968        C  0.89160524  0.05060676  0.91613313    -0.26450
C969        C  0.92240918  0.07302948  0.94204075    -0.15690
C970        C  0.92792197  0.12130763  0.93568514     0.36640
N971        N  0.96116957  0.14832070  0.95630061    -0.89940
H972        H  0.90684900  0.18064372  0.90126549     0.17760
H973        H  0.88829164  0.01433056  0.91809807     0.17750
N974        N  0.83648355  0.04790737  0.85984985    -0.88970
H975        H  0.99280974  0.13469669  0.95051756     0.35130
H976        H  0.95508676  0.15011968  0.98818665     0.40220
H977        H  0.85534303  0.02303374  0.84426505     0.39840
H978        H  0.81354120  0.03104105  0.87894463     0.34730
C979        C  0.56113406  0.43574091  0.89193987    -0.27000
C980        C  0.57392197  0.43217969  0.93413366    -0.15070
C981        C  0.61080458  0.40318353  0.94416205     0.35560
C982        C  0.63343534  0.37948585  0.91274187    -0.26450
C983        C  0.61957874  0.38221425  0.87138657    -0.15690
C984        C  0.58251466  0.41012904  0.86071379     0.36640
N985        N  0.56588818  0.41382607  0.81875101    -0.89940
H986        H  0.53308222  0.45723395  0.88308242     0.17760
H987        H  0.66193815  0.35817593  0.92092544     0.17750
N988        N  0.62642039  0.39798795  0.98603598    -0.88970
H989        H  0.53341720  0.40070556  0.81847021     0.35130
H990        H  0.58449955  0.39398841  0.79799579     0.40220
H991        H  0.65966296  0.40883086  0.98735520     0.39840
H992        H  0.62571137  0.36317234  0.99363124     0.34730
C993        C  0.91939128  0.37761081  0.63084071    -0.27000
C994        C  0.87404528  0.37069007  0.62333812    -0.15070
C995        C  0.85480804  0.38806227  0.58649497     0.35560
C996        C  0.88127798  0.41367332  0.55918392    -0.26450
C997        C  0.92698393  0.42385218  0.56729667    -0.15690
C998        C  0.94573836  0.40458769  0.60465273     0.36640
N999        N  0.99040474  0.41252620  0.61898946    -0.89940
H1000       H  0.93428166  0.36402098  0.65915552     0.17760
H1001       H  0.86480500  0.42544172  0.53114851     0.17750
N1002       N  0.80895877  0.37987599  0.57509215    -0.88970
H1003       H  0.98863115  0.42744440  0.64856824     0.35130
H1004       H  0.00580197  0.43648363  0.60073896     0.40220
H1005       H  0.79301329  0.35844532  0.59632280     0.39840
H1006       H  0.80904377  0.36212840  0.54679996     0.34730
C1007       C  0.61746299  0.08518196  0.94380547    -0.27000
C1008       C  0.57186575  0.07408297  0.93608190    -0.15070
C1009       C  0.55372797  0.09005290  0.89711314     0.35560
C1010       C  0.57959391  0.11721343  0.87051223    -0.26450
C1011       C  0.62397325  0.12781364  0.87917632    -0.15690
C1012       C  0.64326580  0.11166431  0.91650059     0.36640
N1013       N  0.68862744  0.12172190  0.92831125    -0.89940
H1014       H  0.63444778  0.07347399  0.97160204     0.17760
H1015       H  0.56512343  0.12842532  0.84116854     0.17750
N1016       N  0.51092592  0.07767509  0.88068485    -0.88970
H1017       H  0.68752355  0.13982629  0.95639889     0.35130
H1018       H  0.70409109  0.14342424  0.90699587     0.40220
H1019       H  0.49216073  0.10759181  0.87645021     0.39840
H1020       H  0.49342514  0.05690156  0.90042275     0.34730
C1021       C  0.61251794  0.44994104  0.58371947    -0.27000
C1022       C  0.57826450  0.42781051  0.56156273    -0.15070
C1023       C  0.57275453  0.37972729  0.56746675     0.35560
C1024       C  0.59922268  0.35682022  0.59699933    -0.26450
C1025       C  0.63167260  0.37972534  0.62034929    -0.15690
C1026       C  0.63937594  0.42666311  0.61274136     0.36640
N1027       N  0.67356431  0.45101153  0.63501885    -0.89940
H1028       H  0.61854098  0.48591797  0.57819396     0.17760
H1029       H  0.59407367  0.32053530  0.60208726     0.17750
N1030       N  0.54129021  0.35360719  0.54339280    -0.88970
H1031       H  0.67267389  0.48590038  0.62764286     0.35130
H1032       H  0.70442269  0.43876932  0.62444889     0.40220
H1033       H  0.50927284  0.36145883  0.55406125     0.39840
H1034       H  0.54555473  0.31847592  0.54843644     0.34730
C1035       C  0.89070024  0.08544653  0.63971630    -0.27000
C1036       C  0.87127637  0.12532691  0.62448996    -0.15070
C1037       C  0.87604938  0.13644615  0.58211762     0.35560
C1038       C  0.90144565  0.10744546  0.55647122    -0.26450
C1039       C  0.92377611  0.06774938  0.57150365    -0.15690
C1040       C  0.91615062  0.05617902  0.61473061     0.36640
N1041       N  0.92953954  0.01474330  0.63549127    -0.89940
H1042       H  0.88545964  0.07630706  0.67214498     0.17760
H1043       H  0.90245440  0.11566984  0.52376140     0.17750
N1044       N  0.85518051  0.17613084  0.56378036    -0.88970
H1045       H  0.94929727  0.02333729  0.66122273     0.35130
H1046       H  0.94832887  0.99312033  0.61772818     0.40220
H1047       H  0.83715236  0.19493696  0.58576095     0.39840
H1048       H  0.83204833  0.16465097  0.54170756     0.34730
C1049       C  0.60004131  0.09022166  0.63732044    -0.27000
C1050       C  0.62626815  0.12573430  0.62201561    -0.15070
C1051       C  0.62461414  0.13640685  0.57914851     0.35560
C1052       C  0.59833337  0.10941832  0.55250910    -0.26450
C1053       C  0.57319932  0.07184045  0.56713815    -0.15690
C1054       C  0.57289706  0.06419660  0.61113729     0.36640
N1055       N  0.54336831  0.03313603  0.63137610    -0.89940
H1056       H  0.59960984  0.08338787  0.67055804     0.17760
H1057       H  0.59726533  0.11848567  0.51992229     0.17750
N1058       N  0.64951378  0.17360387  0.56136927    -0.88970
H1059       H  0.55152379  0.99949945  0.62381933     0.35130
H1060       H  0.51103739  0.04144443  0.62203755     0.40220
H1061       H  0.66834937  0.19072873  0.58383881     0.39840
H1062       H  0.62648112  0.19733465  0.54952043     0.34730
N1063       N  0.69867724  0.83740743  0.20282929    -0.06800
N1064       N  0.69213845  0.86849926  0.17363427    -0.58920
N1065       N  0.66334733  0.80638712  0.29640519    -0.06480
N1066       N  0.63102141  0.81676439  0.32277381    -0.61050
N1067       N  0.69502222  0.83753340  0.29768919    -0.06080
N1068       N  0.68501772  0.86962883  0.32510958    -0.58900
N1069       N  0.66740315  0.80597596  0.20138243    -0.05760
N1070       N  0.63897206  0.81504199  0.17097132    -0.61400
C1071       C  0.65491259  0.85409934  0.15382067     0.95370
C1072       C  0.64517356  0.85609926  0.34044024     0.95150
N1073       N  0.69479595  0.66576930  0.29845690    -0.06990
N1074       N  0.68711502  0.63650180  0.32899804    -0.59500
N1075       N  0.66600265  0.69818706  0.20113031    -0.05110
N1076       N  0.63730533  0.69101042  0.17051259    -0.60750
N1077       N  0.69637143  0.66550020  0.20223971    -0.07020
N1078       N  0.68880600  0.63524364  0.17249443    -0.59770
N1079       N  0.66355764  0.69767840  0.29735986    -0.04750
N1080       N  0.63381495  0.69052774  0.32700696    -0.60840
Mn1081     Mn  0.66372051  0.75189039  0.24906380     1.18440
C1082       C  0.64930825  0.65270419  0.34687872     0.97460
C1083       C  0.65240402  0.65209326  0.15251001     0.98120
N1084       N  0.80106067  0.83555963  0.30075875    -0.07040
N1085       N  0.80902566  0.86642325  0.32979792    -0.63350
N1086       N  0.83389395  0.80317785  0.20583574    -0.05840
N1087       N  0.86338316  0.80930705  0.17591518    -0.64020
N1088       N  0.80312406  0.83542367  0.20478764    -0.06540
N1089       N  0.81091095  0.86417833  0.17385760    -0.63610
N1090       N  0.83207094  0.80347879  0.30135236    -0.05440
N1091       N  0.86180418  0.81203666  0.33076107    -0.64300
Mn1092     Mn  0.74959383  0.83774430  0.25172912     1.10660
C1093       C  0.84682152  0.85124050  0.34856866     0.98680
C1094       C  0.84830691  0.84703148  0.15586045     0.98760
N1095       N  0.80111889  0.66509088  0.20399131    -0.06550
N1096       N  0.80804078  0.63611965  0.17314393    -0.61920
N1097       N  0.83146331  0.69510694  0.30092541    -0.05870
N1098       N  0.86099286  0.68612122  0.33051228    -0.58650
N1099       N  0.80044327  0.66335347  0.29997915    -0.07180
N1100       N  0.80843255  0.63199527  0.32879280    -0.61490
N1101       N  0.83236856  0.69660374  0.20458397    -0.06170
N1102       N  0.86108802  0.68986083  0.17394529    -0.58680
Mn1103     Mn  0.74815049  0.66344235  0.25129737     1.20190
Mn1104     Mn  0.83379340  0.74952432  0.25341430     1.10090
Cl1105     Cl  0.74872510  0.75064962  0.25179865    -0.86650
C1106       C  0.84499180  0.65250803  0.15418638     0.95690
C1107       C  0.84624001  0.64667214  0.34776446     0.95480
C1108       C  0.95047163  0.95681815  0.47085236    -0.03170
C1109       C  0.94915474  0.54289483  0.47310172    -0.03170
C1110       C  0.54816929  0.95935535  0.46738197    -0.03170
C1111       C  0.54611466  0.54439799  0.46890993    -0.03170
C1112       C  0.52093477  0.50153220  0.45276258    -0.00120
C1113       C  0.97443987  0.50052520  0.45449757    -0.00120
C1114       C  0.95289731  0.95471492  0.03577338    -0.03170
C1115       C  0.55023055  0.95687939  0.03133272    -0.03170
C1116       C  0.97851516  0.93011742  0.00164855    -0.00120
C1117       C  0.52314089  0.93131440  0.99937216    -0.00120
C1118       C  0.54801227  0.54223801  0.03483587    -0.03170
C1119       C  0.97813430  0.49728585  0.05178082    -0.00120
C1120       C  0.52434376  0.49827791  0.04978216    -0.00120
C1121       C  0.57874702  0.97925221  0.99926437    -0.00120
C1122       C  0.57728801  0.52390313  0.00093451    -0.00070
C1123       C  0.97601649  0.56763779  0.00584497    -0.00120
C1124       C  0.52039957  0.56889850  0.00358544    -0.00120
C1125       C  0.95089662  0.53991442  0.03860391    -0.03170
C1126       C  0.92200001  0.97628784  0.00462907    -0.00120
C1127       C  0.92053099  0.52111318  0.00582213    -0.00120
C1128       C  0.91753240  0.86810811  0.38614822    -0.27000
C1129       C  0.87170428  0.87679967  0.38108919    -0.15070
C1130       C  0.85102493  0.90924517  0.40742759     0.35560
C1131       C  0.87652508  0.93263409  0.43691662    -0.26450
C1132       C  0.92341636  0.92699634  0.44009354    -0.15690
C1133       C  0.94335134  0.89201824  0.41560835     0.36640
N1134       N  0.98885452  0.87835717  0.42231180    -0.89940
H1135       H  0.93346213  0.84208108  0.36717970     0.17760
H1136       H  0.85892497  0.95675249  0.45659028     0.17750
N1137       N  0.80409644  0.91910570  0.40559835    -0.88970
H1138       H  0.99955407  0.85594385  0.39893033     0.35130
H1139       H  0.98979684  0.85935714  0.44991259     0.40220
H1140       H  0.78640658  0.88858040  0.40925521     0.39840
H1141       H  0.79656264  0.93365700  0.37665906     0.34730
C1142       C  0.90192715  0.64420834  0.40566165    -0.27000
C1143       C  0.87087048  0.62108690  0.38071134    -0.15070
C1144       C  0.86603019  0.57359172  0.38601223     0.35560
C1145       C  0.89160211  0.55061052  0.41613798    -0.26450
C1146       C  0.92240830  0.57303285  0.44204333    -0.15690
C1147       C  0.92792324  0.62131043  0.43568621     0.36640
N1148       N  0.96117271  0.64832264  0.45630003    -0.89940
H1149       H  0.90685195  0.68064598  0.40126500     0.17760
H1150       H  0.88828611  0.51433468  0.41810505     0.17750
N1151       N  0.83647968  0.54791080  0.35985573    -0.88970
H1152       H  0.99281207  0.63469689  0.45051654     0.35130
H1153       H  0.95509106  0.65012281  0.48818619     0.40220
H1154       H  0.85533787  0.52303554  0.34427173     0.39840
H1155       H  0.81353684  0.53104648  0.37895146     0.34730
C1156       C  0.56113342  0.93574404  0.39193615    -0.27000
C1157       C  0.57391619  0.93217748  0.43413110    -0.15070
C1158       C  0.61079528  0.90317703  0.44416041     0.35560
C1159       C  0.63342859  0.87948160  0.41274050    -0.26450
C1160       C  0.61957849  0.88221671  0.37138383    -0.15690
C1161       C  0.58251725  0.91013500  0.36070966     0.36640
N1162       N  0.56589708  0.91383835  0.31874515    -0.89940
H1163       H  0.53308407  0.95724004  0.38307780     0.17760
H1164       H  0.66192855  0.85816826  0.42092535     0.17750
N1165       N  0.62640531  0.89797490  0.48603541    -0.88970
H1166       H  0.53342543  0.90071971  0.31845879     0.35130
H1167       H  0.58451051  0.89400216  0.29799033     0.40220
H1168       H  0.65964844  0.90881533  0.48735957     0.39840
H1169       H  0.62569302  0.86315833  0.49362671     0.34730
C1170       C  0.91939509  0.87760930  0.13084026    -0.27000
C1171       C  0.87404903  0.87068885  0.12333795    -0.15070
C1172       C  0.85481162  0.88806082  0.08649479     0.35560
C1173       C  0.88128178  0.91367061  0.05918298    -0.26450
C1174       C  0.92698785  0.92384922  0.06729542    -0.15690
C1175       C  0.94574215  0.90458571  0.10465196     0.36640
N1176       N  0.99040813  0.91252541  0.11898923    -0.89940
H1177       H  0.93428544  0.86401997  0.15915528     0.17760
H1178       H  0.86480871  0.92543871  0.03114751     0.17750
N1179       N  0.80896189  0.87987582  0.07509284    -0.88970
H1180       H  0.98863373  0.92744427  0.14856769     0.35130
H1181       H  0.00580513  0.93648280  0.10073857     0.40220
H1182       H  0.79301599  0.85844640  0.09632427     0.39840
H1183       H  0.80904579  0.86212746  0.04680106     0.34730
C1184       C  0.61746230  0.58517840  0.44380311    -0.27000
C1185       C  0.57186474  0.57408070  0.43607989    -0.15070
C1186       C  0.55372703  0.59005151  0.39711136     0.35560
C1187       C  0.57959356  0.61721173  0.37051040    -0.26450
C1188       C  0.62397310  0.62781146  0.37917466    -0.15690
C1189       C  0.64326528  0.61166130  0.41649882     0.36640
N1190       N  0.68862671  0.62171887  0.42831020    -0.89940
H1191       H  0.63444717  0.57346937  0.47159927     0.17760
H1192       H  0.56512321  0.62842426  0.34116686     0.17750
N1193       N  0.51092424  0.57767517  0.38068368    -0.88970
H1194       H  0.68752234  0.63982238  0.45639830     0.35130
H1195       H  0.70409041  0.64342208  0.40699559     0.40220
H1196       H  0.49216015  0.60759260  0.37644898     0.39840
H1197       H  0.49342279  0.55690285  0.40042226     0.34730
C1198       C  0.61252254  0.94994450  0.08372245    -0.27000
C1199       C  0.57826973  0.92781323  0.06156506    -0.15070
C1200       C  0.57276149  0.87972973  0.06746850     0.35560
C1201       C  0.59922975  0.85682313  0.09700124    -0.26450
C1202       C  0.63167894  0.87972860  0.12035161    -0.15690
C1203       C  0.63938155  0.92666656  0.11274393     0.36640
N1204       N  0.67357031  0.95101493  0.13502098    -0.89940
H1205       H  0.61854451  0.98592173  0.07819746     0.17760
H1206       H  0.59408146  0.82053804  0.10208882     0.17750
N1207       N  0.54129829  0.85360878  0.04339411    -0.88970
H1208       H  0.67268011  0.98590367  0.12764456     0.35130
H1209       H  0.70442854  0.93877229  0.12445098     0.40220
H1210       H  0.50928058  0.86145904  0.05406251     0.39840
H1211       H  0.54556403  0.81847759  0.04843730     0.34730
C1212       C  0.89070055  0.58544487  0.13971478    -0.27000
C1213       C  0.87127597  0.62532475  0.12448809    -0.15070
C1214       C  0.87604648  0.63644200  0.08211500     0.35560
C1215       C  0.90144159  0.60744032  0.05646843    -0.26450
C1216       C  0.92377391  0.56774564  0.07150153    -0.15690
C1217       C  0.91614992  0.55617657  0.11472896     0.36640
N1218       N  0.92953915  0.51474120  0.13548998    -0.89940
H1219       H  0.88546134  0.57630646  0.17214390     0.17760
H1220       H  0.90244879  0.61566327  0.02375823     0.17750
N1221       N  0.85517681  0.67612602  0.06377735    -0.88970
H1222       H  0.94929781  0.52333536  0.16122076     0.35130
H1223       H  0.94832729  0.49311752  0.11772653     0.40220
H1224       H  0.83715018  0.69493325  0.08575824     0.39840
H1225       H  0.83204324  0.66464538  0.04170616     0.34730
C1226       C  0.60004110  0.59022432  0.13732187    -0.27000
C1227       C  0.62626773  0.62573715  0.12201693    -0.15070
C1228       C  0.62461197  0.63641082  0.07915007     0.35560
C1229       C  0.59833055  0.60942259  0.05251087    -0.26450
C1230       C  0.57319774  0.57184376  0.06713983    -0.15690
C1231       C  0.57289636  0.56419943  0.11113888     0.36640
N1232       N  0.54336839  0.53313800  0.13137764    -0.89940
H1233       H  0.59961057  0.58338991  0.17055938     0.17760
H1234       H  0.59726168  0.61849035  0.01992414     0.17750
N1235       N  0.64951086  0.67360835  0.06137077    -0.88970
H1236       H  0.55152476  0.49950170  0.12382063     0.35130
H1237       H  0.51103725  0.54144533  0.12203887     0.40220
H1238       H  0.66834730  0.69073268  0.08384002     0.39840
H1239       H  0.62647771  0.69733938  0.04952318     0.34730
N1240       N  0.69867142  0.83740602  0.70282731    -0.06800
N1241       N  0.69213223  0.86849710  0.67363174    -0.58920
N1242       N  0.66334262  0.80638658  0.79640399    -0.06480
N1243       N  0.63101845  0.81676259  0.82277490    -0.61050
N1244       N  0.69501744  0.83753294  0.79768739    -0.06080
N1245       N  0.68501486  0.86962706  0.82510949    -0.58900
N1246       N  0.66739756  0.80597424  0.70138088    -0.05760
N1247       N  0.63896629  0.81503932  0.67096963    -0.61400
C1248       C  0.65490646  0.85409646  0.65381837     0.95370
C1249       C  0.64517198  0.85609664  0.84044206     0.95150
N1250       N  0.69479340  0.66576946  0.79845632    -0.06990
N1251       N  0.68711386  0.63650307  0.82899859    -0.59500
N1252       N  0.66599940  0.69818543  0.70112961    -0.05110
N1253       N  0.63730274  0.69100795  0.67051149    -0.60750
N1254       N  0.69636911  0.66549946  0.70223926    -0.07020
N1255       N  0.68880506  0.63524278  0.67249383    -0.59770
N1256       N  0.66355470  0.69767815  0.79735914    -0.04750
N1257       N  0.63381312  0.69052834  0.82700728    -0.60840
Mn1258     Mn  0.66371603  0.75188934  0.74906273     1.18440
C1259       C  0.64930758  0.65270581  0.84687979     0.97460
C1260       C  0.65240295  0.65209133  0.65250901     0.98120
N1261       N  0.80105559  0.83556130  0.80075816    -0.07040
N1262       N  0.80902192  0.86642538  0.82979689    -0.63350
N1263       N  0.83388922  0.80317883  0.70583555    -0.05840
N1264       N  0.86337910  0.80930839  0.67591560    -0.64020
N1265       N  0.80311885  0.83542414  0.70478655    -0.06540
N1266       N  0.81090607  0.86417877  0.67385655    -0.63610
N1267       N  0.83206511  0.80347968  0.80135220    -0.05440
N1268       N  0.86179888  0.81203727  0.83076040    -0.64300
Mn1269     Mn  0.74958844  0.83774457  0.75172758     1.10660
C1270       C  0.84681789  0.85124185  0.84856749     0.98680
C1271       C  0.84830281  0.84703248  0.65586033     0.98760
N1272       N  0.80111653  0.66509146  0.70399156    -0.06550
N1273       N  0.80803988  0.63612005  0.67314462    -0.61920
N1274       N  0.83145969  0.69510743  0.80092604    -0.05870
N1275       N  0.86099017  0.68612082  0.83051200    -0.58650
N1276       N  0.80044039  0.66335323  0.79997918    -0.07180
N1277       N  0.80843117  0.63199365  0.82879135    -0.61490
N1278       N  0.83236544  0.69660505  0.70458459    -0.06170
N1279       N  0.86108579  0.68986268  0.67394662    -0.58680
Mn1280     Mn  0.74814781  0.66344237  0.75129709     1.20190
Mn1281     Mn  0.83378870  0.74952537  0.75341461     1.10090
Cl1282     Cl  0.74872064  0.75064978  0.75179784    -0.86650
C1283       C  0.84499099  0.65250927  0.65418779     0.95690
C1284       C  0.84623873  0.64667041  0.84776297     0.95480
C1285       C  0.95047646  0.95681497  0.97085074    -0.03170
C1286       C  0.94915599  0.54289196  0.97309995    -0.03170
C1287       C  0.54817459  0.95935703  0.96738403    -0.03170
C1288       C  0.54611616  0.54439939  0.96891146    -0.03170
C1289       C  0.52093857  0.50153243  0.95276360    -0.00120
C1290       C  0.97444348  0.50052328  0.95449674    -0.00120
C1291       C  0.95289352  0.95471768  0.53577447    -0.03170
C1292       C  0.55022652  0.95687768  0.53133078    -0.03170
C1293       C  0.97850970  0.93011946  0.50164917    -0.00120
C1294       C  0.52313512  0.93131409  0.49937115    -0.00120
C1295       C  0.54801242  0.54223608  0.53483433    -0.03170
C1296       C  0.97813293  0.49728735  0.55178136    -0.00120
C1297       C  0.52434225  0.49827724  0.54978105    -0.00120
C1298       C  0.57874333  0.97924901  0.49926173    -0.00120
C1299       C  0.57728648  0.52390006  0.50093215    -0.00070
C1300       C  0.97601717  0.56763963  0.50584575    -0.00120
C1301       C  0.52040017  0.56889812  0.50358484    -0.00120
C1302       C  0.95089696  0.53991727  0.53860533    -0.03170
C1303       C  0.92199599  0.97629203  0.50463096    -0.00120
C1304       C  0.92052939  0.52111742  0.50582439    -0.00120
C1305       C  0.91753164  0.86810756  0.88614447    -0.27000
C1306       C  0.87170329  0.87680049  0.88108707    -0.15070
C1307       C  0.85102620  0.90924592  0.90742680     0.35560
C1308       C  0.87652830  0.93263314  0.93691557    -0.26450
C1309       C  0.92341970  0.92699380  0.94009160    -0.15690
C1310       C  0.94335264  0.89201579  0.91560482     0.36640
N1311       N  0.98885610  0.87835401  0.92230586    -0.89940
H1312       H  0.93345988  0.84208083  0.86717453     0.17760
H1313       H  0.85892935  0.95675200  0.95658962     0.17750
N1314       N  0.80409797  0.91910811  0.90559927    -0.88970
H1315       H  0.99955236  0.85593642  0.89892644     0.35130
H1316       H  0.98980105  0.85935867  0.94990920     0.40220
H1317       H  0.78640729  0.88858337  0.90925655     0.39840
H1318       H  0.79656352  0.93365966  0.87666024     0.34730
C1319       C  0.90192574  0.64420565  0.90566061    -0.27000
C1320       C  0.87087049  0.62108415  0.88070886    -0.15070
C1321       C  0.86603258  0.57358835  0.88600777     0.35560
C1322       C  0.89160524  0.55060676  0.91613311    -0.26450
C1323       C  0.92240918  0.57302948  0.94204074    -0.15690
C1324       C  0.92792198  0.62130763  0.93568513     0.36640
N1325       N  0.96116958  0.64832070  0.95630060    -0.89940
H1326       H  0.90684901  0.68064373  0.90126547     0.17760
H1327       H  0.88829163  0.51433057  0.91809805     0.17750
N1328       N  0.83648355  0.54790738  0.85984984    -0.88970
H1329       H  0.99280975  0.63469669  0.95051755     0.35130
H1330       H  0.95508678  0.65011968  0.98818663     0.40220
H1331       H  0.85534302  0.52303375  0.84426504     0.39840
H1332       H  0.81354120  0.53104107  0.87894462     0.34730
C1333       C  0.56113408  0.93574087  0.89193993    -0.27000
C1334       C  0.57392204  0.93217971  0.93413370    -0.15070
C1335       C  0.61080468  0.90318359  0.94416209     0.35560
C1336       C  0.63343543  0.87948590  0.91274191    -0.26450
C1337       C  0.61957878  0.88221424  0.87138662    -0.15690
C1338       C  0.58251466  0.91012898  0.86071386     0.36640
N1339       N  0.56588812  0.91382594  0.81875109    -0.89940
H1340       H  0.53308221  0.95723388  0.88308248     0.17760
H1341       H  0.66193827  0.85817602  0.92092547     0.17750
N1342       N  0.62642054  0.89798806  0.98603602    -0.88970
H1343       H  0.53341715  0.90070540  0.81847035     0.35130
H1344       H  0.58449947  0.89398827  0.79799587     0.40220
H1345       H  0.65966311  0.90883100  0.98735520     0.39840
H1346       H  0.62571156  0.86317246  0.99363130     0.34730
C1347       C  0.91939126  0.87761081  0.63084067    -0.27000
C1348       C  0.87404525  0.87069010  0.62333810    -0.15070
C1349       C  0.85480799  0.88806234  0.58649498     0.35560
C1350       C  0.88127792  0.91367341  0.55918394    -0.26450
C1351       C  0.92698388  0.92385222  0.56729666    -0.15690
C1352       C  0.94573832  0.90458770  0.60465269     0.36640
N1353       N  0.99040472  0.91252617  0.61898940    -0.89940
H1354       H  0.93428165  0.86402094  0.65915546     0.17760
H1355       H  0.86480492  0.92544184  0.53114854     0.17750
N1356       N  0.80895871  0.87987609  0.57509218    -0.88970
H1357       H  0.98863116  0.92744433  0.64856820     0.35130
H1358       H  0.00580194  0.93648363  0.60073892     0.40220
H1359       H  0.79301323  0.85844539  0.59632282     0.39840
H1360       H  0.80904368  0.86212853  0.54679998     0.34730
C1361       C  0.61746298  0.58518192  0.94380543    -0.27000
C1362       C  0.57186574  0.57408295  0.93608186    -0.15070
C1363       C  0.55372796  0.59005288  0.89711310     0.35560
C1364       C  0.57959391  0.61721340  0.87051219    -0.26450
C1365       C  0.62397325  0.62781361  0.87917629    -0.15690
C1366       C  0.64326580  0.61166427  0.91650055     0.36640
N1367       N  0.68862744  0.62172186  0.92831122    -0.89940
H1368       H  0.63444778  0.57347394  0.97160199     0.17760
H1369       H  0.56512343  0.62842530  0.84116850     0.17750
N1370       N  0.51092591  0.57767508  0.88068481    -0.88970
H1371       H  0.68752354  0.63982624  0.95639887     0.35130
H1372       H  0.70409109  0.64342420  0.90699585     0.40220
H1373       H  0.49216073  0.60759181  0.87645016     0.39840
H1374       H  0.49342511  0.55690158  0.90042272     0.34730
C1375       C  0.61251790  0.94994101  0.58371944    -0.27000
C1376       C  0.57826447  0.92781048  0.56156269    -0.15070
C1377       C  0.57275451  0.87972726  0.56746671     0.35560
C1378       C  0.59922266  0.85682020  0.59699930    -0.26450
C1379       C  0.63167256  0.87972533  0.62034927    -0.15690
C1380       C  0.63937589  0.92666310  0.61274134     0.36640
N1381       N  0.67356422  0.95101154  0.63501887    -0.89940
H1382       H  0.61854094  0.98591794  0.57819393     0.17760
H1383       H  0.59407367  0.82053528  0.60208723     0.17750
N1384       N  0.54129021  0.85360715  0.54339275    -0.88970
H1385       H  0.67267378  0.98590040  0.62764287     0.35130
H1386       H  0.70442262  0.93876936  0.62444892     0.40220
H1387       H  0.50927283  0.86145879  0.55406118     0.39840
H1388       H  0.54555473  0.81847588  0.54843639     0.34730
C1389       C  0.89070030  0.58544659  0.63971631    -0.27000
C1390       C  0.87127638  0.62532693  0.62448994    -0.15070
C1391       C  0.87604932  0.63644610  0.58211758     0.35560
C1392       C  0.90144557  0.60744538  0.55647118    -0.26450
C1393       C  0.92377608  0.56774935  0.57150364    -0.15690
C1394       C  0.91615064  0.55617905  0.61473062     0.36640
N1395       N  0.92953955  0.51474334  0.63549129    -0.89940
H1396       H  0.88545975  0.57630716  0.67214500     0.17760
H1397       H  0.90245427  0.61566972  0.52376135     0.17750
N1398       N  0.85518039  0.67613074  0.56378029    -0.88970
H1399       H  0.94929735  0.52333732  0.66122271     0.35130
H1400       H  0.94832879  0.49312031  0.61772817     0.40220
H1401       H  0.83715228  0.69493690  0.58576088     0.39840
H1402       H  0.83204818  0.66465083  0.54170754     0.34730
C1403       C  0.60004132  0.59022171  0.63732045    -0.27000
C1404       C  0.62626814  0.62573436  0.62201561    -0.15070
C1405       C  0.62461409  0.63640693  0.57914851     0.35560
C1406       C  0.59833331  0.60941839  0.55250912    -0.26450
C1407       C  0.57319929  0.57184051  0.56713817    -0.15690
C1408       C  0.57289706  0.56419665  0.61113731     0.36640
N1409       N  0.54336834  0.53313605  0.63137613    -0.89940
H1410       H  0.59960988  0.58338791  0.67055805     0.17760
H1411       H  0.59726524  0.61848575  0.51992231     0.17750
N1412       N  0.64951370  0.67360396  0.56136927    -0.88970
H1413       H  0.55152384  0.49949948  0.62381935     0.35130
H1414       H  0.51103741  0.54144443  0.62203758     0.40220
H1415       H  0.66834930  0.69072882  0.58383880     0.39840
H1416       H  0.62648103  0.69733474  0.54952045     0.34730
loop_ 
_geom_bond_atom_site_label_1 
_geom_bond_atom_site_label_2 
_geom_bond_distance 
_geom_bond_site_symmetry_2 
_ccdc_geom_bond_type 
N1            N2   1.318       .  A
N1            N7   1.314       .  A
N1          Mn30   2.185       .  S
N2            C9   1.350       .  A
N3            N5   1.317       .  A
N3            N4   1.321       .  A
N3          Mn19   2.201       .  S
N4           C10   1.351       .  A
N5            N6   1.320       .  A
N5          Mn30   2.202       .  S
N6           C10   1.351       .  A
N7            N8   1.319       .  A
N7          Mn19   2.201       .  S
N8            C9   1.355       .  A
C9          C140   1.479       .  S
C10          C98   1.467       .  S
N11          N17   1.317       .  A
N11          N12   1.321       .  A
N11         Mn41   2.202       .  S
N12          C20   1.353       .  A
N13          N14   1.321       .  A
N13          N15   1.315       .  A
N13         Mn19   2.199       .  S
N14          C21   1.352       .  A
N15          N16   1.321       .  A
N15         Mn41   2.207       .  S
N16          C21   1.353       .  A
N17          N18   1.321       .  A
N17         Mn19   2.214       .  S
N18          C20   1.354       .  A
Mn19        Cl43   2.544       .  S
C20         C126   1.478       .  S
C21         C165   1.471       .  S
N22          N23   1.319       .  A
N22          N28   1.315       .  A
N22         Mn30   2.200       .  S
N23          C31   1.353       .  A
N24          N26   1.314       .  A
N24          N25   1.318       .  A
N24         Mn42   2.187       .  S
N25          C32   1.350       .  A
N26          N27   1.321       .  A
N26         Mn30   2.201       .  S
N27          C32   1.354       .  A
N28          N29   1.320       .  A
N28         Mn42   2.204       .  S
N29          C31   1.355       .  A
Mn30        Cl43   2.543       .  S
C31          C67   1.484       .  S
C32         C109   1.472       .  S
N33          N34   1.319       .  A
N33          N39   1.315       .  A
N33         Mn41   2.197       .  S
N34          C44   1.352       .  A
N35          N36   1.321       .  A
N35          N37   1.315       .  A
N35         Mn42   2.202       .  S
N36          C45   1.354       .  A
N37          N38   1.321       .  A
N37         Mn41   2.208       .  S
N38          C45   1.355       .  A
N39          N40   1.321       .  A
N39         Mn42   2.202       .  S
N40          C44   1.352       .  A
Mn41        Cl43   2.547       .  S
Mn42        Cl43   2.545       .  S
C44         C151   1.468       .  S
C45          C81   1.486       .  S
C46          C70   1.547       .  S
C46         C405   1.558       .  S
C46         C231   1.509       .  S
C46         C241   1.491       .  S
C47          C84   1.548       .  S
C47          C51   1.566       .  S
C47         C238   1.508       .  S
C47         C242   1.499       .  S
C48          C95   1.536       .  S
C48         C404   1.545       .  S
C48         C232   1.514       .  S
C48         C236   1.491       .  S
C49         C123   1.569       .  S
C49          C50   1.553       .  S
C49         C237   1.508       .  S
C49         C239   1.530       .  S
C50         C402   1.545   1_545  S
C50         C759   1.392   1_455  D
C51         C400   1.558   1_545  S
C51         C758   1.392       .  D
C52         C112   1.563       .  S
C52          C54   1.517       .  S
C52          C64   1.496       .  S
C52         C411   1.545       .  S
C53         C137   1.534       .  S
C53          C55   1.507   1_554  S
C53          C59   1.490   1_554  S
C53         C412   1.551       .  S
C54         C223   1.509   1_554  S
C54         C763   1.338   1_554  D
C55         C225   1.514       .  S
C55         C762   1.338   1_456  D
C56         C168   1.547       .  S
C56          C58   1.545   1_545  S
C56          C60   1.496       .  S
C56          C62   1.511       .  S
C57          C63   1.543   1_565  S
C57         C406   1.545       .  S
C57         C766   1.384       .  D
C58         C407   1.551       .  S
C58         C765   1.384   1_455  D
C59         C225   1.491       .  S
C59         C414   1.306   1_556  D
C60         C226   1.508   1_554  S
C60         C413   1.306   1_544  D
C61          C63   1.527       .  S
C61         C224   1.508   1_554  S
C61         C770   1.330       .  D
C62         C226   1.530   1_554  S
C62         C769   1.330   1_455  D
C63         C154   1.560       .  S
C63          C65   1.495       .  S
C64         C223   1.491   1_554  S
C64         C419   1.310       .  D
C65         C224   1.499   1_554  S
C65         C418   1.310   1_545  D
C66          C67   1.402       .  A
C66          C71   1.408       .  A
C66          H73   1.083       .  S
C67          C68   1.412       .  A
C68          C69   1.395       .  A
C68          N75   1.433       .  S
C69          C70   1.415       .  A
C69          H74   1.082       .  S
C70          C71   1.419       .  A
C71          N72   1.432       .  S
N72          H76   1.046       .  S
N72          H77   1.045       .  S
N75          H78   1.045       .  S
N75          H79   1.045       .  S
C80          C81   1.401       .  A
C80          C85   1.404       .  A
C80          H87   1.084       .  S
C81          C82   1.405       .  A
C82          C83   1.400       .  A
C82          N89   1.433       .  S
C83          C84   1.404       .  A
C83          H88   1.066       .  S
C84          C85   1.435       .  A
C85          N86   1.433       .  S
N86          H90   1.042       .  S
N86          H91   1.041       .  S
N89          H92   1.046       .  S
N89          H93   1.046       .  S
C94          C95   1.410       .  A
C94          C99   1.404       .  A
C94         H101   1.083       .  S
C95          C96   1.424       .  A
C96          C97   1.398       .  A
C96         N103   1.429       .  S
C97          C98   1.392       .  A
C97         H102   1.085       .  S
C98          C99   1.414       .  A
C99         N100   1.438       .  S
N100        H104   1.046       .  S
N100        H105   1.043       .  S
N103        H106   1.046       .  S
N103        H107   1.046       .  S
C108        C109   1.393       .  A
C108        C113   1.398       .  A
C108        H115   1.085       .  S
C109        C110   1.407       .  A
C110        C111   1.401       .  A
C110        N117   1.440       .  S
C111        C112   1.424       .  A
C111        H116   1.080       .  S
C112        C113   1.436       .  A
C113        N114   1.432       .  S
N114        H118   1.046       .  S
N114        H119   1.024       .  S
N117        H120   1.042       .  S
N117        H121   1.046       .  S
C122        C123   1.425       .  A
C122        C127   1.403       .  A
C122        H129   1.080       .  S
C123        C124   1.438       .  A
C124        C125   1.401       .  A
C124        N131   1.432       .  S
C125        C126   1.392       .  A
C125        H130   1.085       .  S
C126        C127   1.408       .  A
C127        N128   1.440       .  S
N128        H132   1.046       .  S
N128        H133   1.042       .  S
N131        H134   1.045   1_455  S
N131        H135   1.023   1_455  S
C136        C137   1.406       .  A
C136        C141   1.402       .  A
C136        H143   1.081       .  S
C137        C138   1.427       .  A
C138        C139   1.401       .  A
C138        N145   1.439       .  S
C139        C140   1.398       .  A
C139        H144   1.084       .  S
C140        C141   1.412       .  A
C141        N142   1.438       .  S
N142        H146   1.046       .  S
N142        H147   1.046       .  S
N145        H148   1.042       .  S
N145        H149   1.046       .  S
C150        C151   1.387       .  A
C150        C155   1.397       .  A
C150        H157   1.086       .  S
C151        C152   1.405       .  A
C152        C153   1.403       .  A
C152        N159   1.438       .  S
C153        C154   1.419       .  A
C153        H158   1.077       .  S
C154        C155   1.446       .  A
C155        N156   1.436       .  S
N156        H160   1.046       .  S
N156        H161   1.019   1_545  S
N159        H162   1.044       .  S
N159        H163   1.046       .  S
C164        C165   1.393       .  A
C164        C169   1.395       .  A
C164        H171   1.085       .  S
C165        C166   1.411       .  A
C166        C167   1.405       .  A
C166        N173   1.438       .  S
C167        C168   1.413       .  A
C167        H172   1.079       .  S
C168        C169   1.429       .  A
C169        N170   1.426       .  S
N170        H174   1.040   1_545  S
N170        H175   1.039       .  S
N173        H176   1.044       .  S
N173        H177   1.046       .  S
N178        N179   1.318       .  A
N178        N184   1.314       .  A
N178       Mn207   2.185       .  S
N179        C186   1.350       .  A
N180        N182   1.317       .  A
N180        N181   1.321       .  A
N180       Mn196   2.201       .  S
N181        C187   1.351       .  A
N182        N183   1.320       .  A
N182       Mn207   2.202       .  S
N183        C187   1.351       .  A
N184        N185   1.319       .  A
N184       Mn196   2.201       .  S
N185        C186   1.355       .  A
C186        C317   1.479       .  S
C187        C275   1.467       .  S
N188        N194   1.317       .  A
N188        N189   1.321       .  A
N188       Mn218   2.202       .  S
N189        C197   1.353       .  A
N190        N191   1.321       .  A
N190        N192   1.315       .  A
N190       Mn196   2.199       .  S
N191        C198   1.352       .  A
N192        N193   1.321       .  A
N192       Mn218   2.207       .  S
N193        C198   1.353       .  A
N194        N195   1.321       .  A
N194       Mn196   2.214       .  S
N195        C197   1.354       .  A
Mn196      Cl220   2.544       .  S
C197        C303   1.478       .  S
C198        C342   1.471       .  S
N199        N200   1.319       .  A
N199        N205   1.315       .  A
N199       Mn207   2.200       .  S
N200        C208   1.353       .  A
N201        N203   1.314       .  A
N201        N202   1.318       .  A
N201       Mn219   2.187       .  S
N202        C209   1.350       .  A
N203        N204   1.321       .  A
N203       Mn207   2.201       .  S
N204        C209   1.354       .  A
N205        N206   1.320       .  A
N205       Mn219   2.204       .  S
N206        C208   1.355       .  A
Mn207      Cl220   2.543       .  S
C208        C244   1.485       .  S
C209        C286   1.472       .  S
N210        N211   1.319       .  A
N210        N216   1.315       .  A
N210       Mn218   2.197       .  S
N211        C221   1.352       .  A
N212        N213   1.321       .  A
N212        N214   1.315       .  A
N212       Mn219   2.202       .  S
N213        C222   1.354       .  A
N214        N215   1.321       .  A
N214       Mn218   2.208       .  S
N215        C222   1.355       .  A
N216        N217   1.321       .  A
N216       Mn219   2.202       .  S
N217        C221   1.352       .  A
Mn218      Cl220   2.547       .  S
Mn219      Cl220   2.545       .  S
C221        C328   1.468       .  S
C222        C258   1.486       .  S
C223        C247   1.547       .  S
C223        C582   1.558       .  S
C224        C261   1.548       .  S
C224        C228   1.566       .  S
C225        C272   1.536       .  S
C225        C581   1.545       .  S
C226        C300   1.569       .  S
C226        C227   1.553       .  S
C227        C579   1.545   1_545  S
C227        C936   1.392   1_455  D
C228        C577   1.558   1_545  S
C228        C935   1.392       .  D
C229        C289   1.563       .  S
C229        C231   1.517       .  S
C229        C588   1.545       .  S
C229        C241   1.496       .  S
C230        C314   1.534       .  S
C230        C232   1.507       .  S
C230        C589   1.551       .  S
C230        C236   1.490       .  S
C231        C940   1.338       .  D
C232        C939   1.338   1_455  D
C233        C345   1.547       .  S
C233        C235   1.545   1_545  S
C233        C237   1.496       .  S
C233        C239   1.511       .  S
C234        C583   1.545       .  S
C234        C240   1.543   1_565  S
C234        C943   1.384       .  D
C235        C584   1.551       .  S
C235        C942   1.384   1_455  D
C236        C591   1.306       .  D
C237        C590   1.306   1_545  D
C238        C240   1.527       .  S
C238        C947   1.330       .  D
C239        C946   1.330   1_455  D
C240        C331   1.560       .  S
C240        C242   1.495       .  S
C241        C596   1.310       .  D
C242        C595   1.310   1_545  D
C243        C244   1.402       .  A
C243        C248   1.408       .  A
C243        H250   1.083       .  S
C244        C245   1.412       .  A
C245        C246   1.395       .  A
C245        N252   1.433       .  S
C246        C247   1.415       .  A
C246        H251   1.082       .  S
C247        C248   1.419       .  A
C248        N249   1.432       .  S
N249        H253   1.046       .  S
N249        H254   1.045       .  S
N252        H255   1.045       .  S
N252        H256   1.045       .  S
C257        C258   1.401       .  A
C257        C262   1.404       .  A
C257        H264   1.084       .  S
C258        C259   1.405       .  A
C259        C260   1.400       .  A
C259        N266   1.433       .  S
C260        C261   1.404       .  A
C260        H265   1.066       .  S
C261        C262   1.435       .  A
C262        N263   1.433       .  S
N263        H267   1.042       .  S
N263        H268   1.041       .  S
N266        H269   1.046       .  S
N266        H270   1.046       .  S
C271        C272   1.410       .  A
C271        C276   1.404       .  A
C271        H278   1.083       .  S
C272        C273   1.424       .  A
C273        C274   1.398       .  A
C273        N280   1.429       .  S
C274        C275   1.392       .  A
C274        H279   1.085       .  S
C275        C276   1.414       .  A
C276        N277   1.438       .  S
N277        H281   1.046       .  S
N277        H282   1.043       .  S
N280        H283   1.046       .  S
N280        H284   1.046       .  S
C285        C286   1.393       .  A
C285        C290   1.398       .  A
C285        H292   1.085       .  S
C286        C287   1.407       .  A
C287        C288   1.401       .  A
C287        N294   1.440       .  S
C288        C289   1.424       .  A
C288        H293   1.080       .  S
C289        C290   1.436       .  A
C290        N291   1.432       .  S
N291        H295   1.046       .  S
N291        H296   1.024       .  S
N294        H297   1.042       .  S
N294        H298   1.046       .  S
C299        C300   1.425       .  A
C299        C304   1.403       .  A
C299        H306   1.080       .  S
C300        C301   1.438       .  A
C301        C302   1.401       .  A
C301        N308   1.432       .  S
C302        C303   1.392       .  A
C302        H307   1.085       .  S
C303        C304   1.408       .  A
C304        N305   1.440       .  S
N305        H309   1.046       .  S
N305        H310   1.042       .  S
N308        H311   1.045   1_455  S
N308        H312   1.023   1_455  S
C313        C314   1.406       .  A
C313        C318   1.402       .  A
C313        H320   1.081       .  S
C314        C315   1.427       .  A
C315        C316   1.401       .  A
C315        N322   1.439       .  S
C316        C317   1.398       .  A
C316        H321   1.084       .  S
C317        C318   1.412       .  A
C318        N319   1.438       .  S
N319        H323   1.046       .  S
N319        H324   1.046       .  S
N322        H325   1.042       .  S
N322        H326   1.046       .  S
C327        C328   1.387       .  A
C327        C332   1.397       .  A
C327        H334   1.086       .  S
C328        C329   1.405       .  A
C329        C330   1.403       .  A
C329        N336   1.438       .  S
C330        C331   1.419       .  A
C330        H335   1.077       .  S
C331        C332   1.446       .  A
C332        N333   1.436       .  S
N333        H337   1.046       .  S
N333        H338   1.019   1_545  S
N336        H339   1.044       .  S
N336        H340   1.046       .  S
C341        C342   1.393       .  A
C341        C346   1.395       .  A
C341        H348   1.085       .  S
C342        C343   1.411       .  A
C343        C344   1.405       .  A
C343        N350   1.438       .  S
C344        C345   1.413       .  A
C344        H349   1.079       .  S
C345        C346   1.429       .  A
C346        N347   1.426       .  S
N347        H351   1.040   1_545  S
N347        H352   1.039       .  S
N350        H353   1.044       .  S
N350        H354   1.046       .  S
N355        N356   1.318       .  A
N355        N361   1.314       .  A
N355       Mn384   2.185       .  S
N356        C363   1.350       .  A
N357        N359   1.317       .  A
N357        N358   1.321       .  A
N357       Mn373   2.201       .  S
N358        C364   1.351       .  A
N359        N360   1.320       .  A
N359       Mn384   2.202       .  S
N360        C364   1.351       .  A
N361        N362   1.319       .  A
N361       Mn373   2.201       .  S
N362        C363   1.355       .  A
C363        C494   1.479       .  S
C364        C452   1.467       .  S
N365        N371   1.317       .  A
N365        N366   1.321       .  A
N365       Mn395   2.202       .  S
N366        C374   1.353       .  A
N367        N368   1.321       .  A
N367        N369   1.315       .  A
N367       Mn373   2.199       .  S
N368        C375   1.352       .  A
N369        N370   1.321       .  A
N369       Mn395   2.207       .  S
N370        C375   1.353       .  A
N371        N372   1.321       .  A
N371       Mn373   2.214       .  S
N372        C374   1.354       .  A
Mn373      Cl397   2.544       .  S
C374        C480   1.478       .  S
C375        C519   1.471       .  S
N376        N377   1.319       .  A
N376        N382   1.315       .  A
N376       Mn384   2.200       .  S
N377        C385   1.353       .  A
N378        N380   1.314       .  A
N378        N379   1.318       .  A
N378       Mn396   2.187       .  S
N379        C386   1.350       .  A
N380        N381   1.321       .  A
N380       Mn384   2.201       .  S
N381        C386   1.354       .  A
N382        N383   1.320       .  A
N382       Mn396   2.204       .  S
N383        C385   1.355       .  A
Mn384      Cl397   2.543       .  S
C385        C421   1.484       .  S
C386        C463   1.472       .  S
N387        N388   1.319       .  A
N387        N393   1.315       .  A
N387       Mn395   2.197       .  S
N388        C398   1.352       .  A
N389        N390   1.321       .  A
N389        N391   1.315       .  A
N389       Mn396   2.202       .  S
N390        C399   1.354       .  A
N391        N392   1.321       .  A
N391       Mn395   2.208       .  S
N392        C399   1.355       .  A
N393        N394   1.321       .  A
N393       Mn396   2.202       .  S
N394        C398   1.352       .  A
Mn395      Cl397   2.547       .  S
Mn396      Cl397   2.545       .  S
C398        C505   1.468       .  S
C399        C435   1.486       .  S
C400        C424   1.547       .  S
C400        C585   1.509       .  S
C400        C595   1.491       .  S
C401        C438   1.548       .  S
C401        C405   1.566       .  S
C401        C592   1.508       .  S
C401        C596   1.499       .  S
C402        C449   1.536       .  S
C402        C586   1.514       .  S
C402        C590   1.491       .  S
C403        C477   1.569       .  S
C403        C404   1.553       .  S
C403        C591   1.508       .  S
C403        C593   1.530       .  S
C404       C1113   1.392   1_455  D
C405       C1112   1.392       .  D
C406        C466   1.563       .  S
C406        C408   1.517       .  S
C406        C418   1.496       .  S
C407        C491   1.534       .  S
C407        C409   1.507   1_554  S
C407        C413   1.490   1_554  S
C408        C577   1.509   1_554  S
C408       C1117   1.338   1_554  D
C409        C579   1.514       .  S
C409       C1116   1.338   1_456  D
C410        C522   1.547       .  S
C410        C412   1.545       .  S
C410        C414   1.496       .  S
C410        C416   1.511       .  S
C411        C417   1.543       .  S
C411       C1120   1.384       .  D
C412       C1119   1.384   1_455  D
C413        C579   1.491       .  S
C414        C580   1.508   1_554  S
C415        C578   1.508   1_554  S
C415        C417   1.527       .  S
C415       C1124   1.330       .  D
C416        C580   1.530   1_554  S
C416       C1123   1.330   1_455  D
C417        C508   1.560       .  S
C417        C419   1.495       .  S
C418        C577   1.491   1_554  S
C419        C578   1.499   1_554  S
C420        C421   1.402       .  A
C420        C425   1.408       .  A
C420        H427   1.083       .  S
C421        C422   1.412       .  A
C422        C423   1.395       .  A
C422        N429   1.433       .  S
C423        C424   1.415       .  A
C423        H428   1.082       .  S
C424        C425   1.419       .  A
C425        N426   1.432       .  S
N426        H430   1.046       .  S
N426        H431   1.045       .  S
N429        H432   1.045       .  S
N429        H433   1.045       .  S
C434        C435   1.401       .  A
C434        C439   1.404       .  A
C434        H441   1.084       .  S
C435        C436   1.405       .  A
C436        C437   1.400       .  A
C436        N443   1.433       .  S
C437        C438   1.404       .  A
C437        H442   1.066       .  S
C438        C439   1.435       .  A
C439        N440   1.433       .  S
N440        H444   1.042       .  S
N440        H445   1.041       .  S
N443        H446   1.046       .  S
N443        H447   1.046       .  S
C448        C449   1.410       .  A
C448        C453   1.404       .  A
C448        H455   1.083       .  S
C449        C450   1.424       .  A
C450        C451   1.398       .  A
C450        N457   1.429       .  S
C451        C452   1.392       .  A
C451        H456   1.085       .  S
C452        C453   1.414       .  A
C453        N454   1.438       .  S
N454        H458   1.046       .  S
N454        H459   1.043       .  S
N457        H460   1.046       .  S
N457        H461   1.046       .  S
C462        C463   1.393       .  A
C462        C467   1.398       .  A
C462        H469   1.085       .  S
C463        C464   1.407       .  A
C464        C465   1.401       .  A
C464        N471   1.440       .  S
C465        C466   1.424       .  A
C465        H470   1.080       .  S
C466        C467   1.436       .  A
C467        N468   1.432       .  S
N468        H472   1.046       .  S
N468        H473   1.024       .  S
N471        H474   1.042       .  S
N471        H475   1.046       .  S
C476        C477   1.425       .  A
C476        C481   1.403       .  A
C476        H483   1.080       .  S
C477        C478   1.438       .  A
C478        C479   1.401       .  A
C478        N485   1.432       .  S
C479        C480   1.392       .  A
C479        H484   1.085       .  S
C480        C481   1.408       .  A
C481        N482   1.440       .  S
N482        H486   1.046       .  S
N482        H487   1.042       .  S
N485        H488   1.045   1_455  S
N485        H489   1.023   1_455  S
C490        C491   1.406       .  A
C490        C495   1.402       .  A
C490        H497   1.081       .  S
C491        C492   1.427       .  A
C492        C493   1.401       .  A
C492        N499   1.439       .  S
C493        C494   1.398       .  A
C493        H498   1.084       .  S
C494        C495   1.412       .  A
C495        N496   1.438       .  S
N496        H500   1.046       .  S
N496        H501   1.046       .  S
N499        H502   1.042       .  S
N499        H503   1.046       .  S
C504        C505   1.387       .  A
C504        C509   1.397       .  A
C504        H511   1.086       .  S
C505        C506   1.405       .  A
C506        C507   1.403       .  A
C506        N513   1.438       .  S
C507        C508   1.419       .  A
C507        H512   1.077       .  S
C508        C509   1.446       .  A
C509        N510   1.436       .  S
N510        H514   1.046       .  S
N510        H515   1.019       .  S
N513        H516   1.044       .  S
N513        H517   1.046       .  S
C518        C519   1.393       .  A
C518        C523   1.395       .  A
C518        H525   1.085       .  S
C519        C520   1.411       .  A
C520        C521   1.405       .  A
C520        N527   1.438       .  S
C521        C522   1.413       .  A
C521        H526   1.079       .  S
C522        C523   1.429       .  A
C523        N524   1.426       .  S
N524        H528   1.040       .  S
N524        H529   1.039       .  S
N527        H530   1.044       .  S
N527        H531   1.046       .  S
N532        N533   1.318       .  A
N532        N538   1.314       .  A
N532       Mn561   2.185       .  S
N533        C540   1.350       .  A
N534        N536   1.317       .  A
N534        N535   1.321       .  A
N534       Mn550   2.201       .  S
N535        C541   1.351       .  A
N536        N537   1.320       .  A
N536       Mn561   2.202       .  S
N537        C541   1.351       .  A
N538        N539   1.319       .  A
N538       Mn550   2.201       .  S
N539        C540   1.355       .  A
C540        C671   1.479       .  S
C541        C629   1.467       .  S
N542        N548   1.317       .  A
N542        N543   1.321       .  A
N542       Mn572   2.202       .  S
N543        C551   1.353       .  A
N544        N545   1.321       .  A
N544        N546   1.315       .  A
N544       Mn550   2.199       .  S
N545        C552   1.352       .  A
N546        N547   1.321       .  A
N546       Mn572   2.207       .  S
N547        C552   1.353       .  A
N548        N549   1.321       .  A
N548       Mn550   2.214       .  S
N549        C551   1.354       .  A
Mn550      Cl574   2.544       .  S
C551        C657   1.478       .  S
C552        C696   1.471       .  S
N553        N554   1.319       .  A
N553        N559   1.315       .  A
N553       Mn561   2.200       .  S
N554        C562   1.353       .  A
N555        N557   1.314       .  A
N555        N556   1.318       .  A
N555       Mn573   2.187       .  S
N556        C563   1.350       .  A
N557        N558   1.321       .  A
N557       Mn561   2.201       .  S
N558        C563   1.354       .  A
N559        N560   1.320       .  A
N559       Mn573   2.204       .  S
N560        C562   1.355       .  A
Mn561      Cl574   2.543       .  S
C562        C598   1.485       .  S
C563        C640   1.472       .  S
N564        N565   1.319       .  A
N564        N570   1.315       .  A
N564       Mn572   2.197       .  S
N565        C575   1.352       .  A
N566        N567   1.321       .  A
N566        N568   1.315       .  A
N566       Mn573   2.202       .  S
N567        C576   1.354       .  A
N568        N569   1.321       .  A
N568       Mn572   2.208       .  S
N569        C576   1.355       .  A
N570        N571   1.321       .  A
N570       Mn573   2.202       .  S
N571        C575   1.352       .  A
Mn572      Cl574   2.547       .  S
Mn573      Cl574   2.545       .  S
C575        C682   1.468       .  S
C576        C612   1.486       .  S
C577        C601   1.547       .  S
C578        C615   1.548       .  S
C578        C582   1.566       .  S
C579        C626   1.536       .  S
C580        C654   1.569       .  S
C580        C581   1.553       .  S
C581       C1290   1.392   1_455  D
C582       C1289   1.392       .  D
C583        C643   1.563       .  S
C583        C585   1.517       .  S
C583        C595   1.496       .  S
C584        C668   1.534       .  S
C584        C586   1.507       .  S
C584        C590   1.490       .  S
C585       C1294   1.338       .  D
C586       C1293   1.338   1_455  D
C587        C699   1.547       .  S
C587        C589   1.545       .  S
C587        C591   1.496       .  S
C587        C593   1.511       .  S
C588        C594   1.543       .  S
C588       C1297   1.384       .  D
C589       C1296   1.384   1_455  D
C592        C594   1.527       .  S
C592       C1301   1.330       .  D
C593       C1300   1.330   1_455  D
C594        C685   1.560       .  S
C594        C596   1.495       .  S
C597        C598   1.402       .  A
C597        C602   1.408       .  A
C597        H604   1.083       .  S
C598        C599   1.412       .  A
C599        C600   1.395       .  A
C599        N606   1.433       .  S
C600        C601   1.415       .  A
C600        H605   1.082       .  S
C601        C602   1.419       .  A
C602        N603   1.432       .  S
N603        H607   1.046       .  S
N603        H608   1.045       .  S
N606        H609   1.045       .  S
N606        H610   1.045       .  S
C611        C612   1.401       .  A
C611        C616   1.404       .  A
C611        H618   1.084       .  S
C612        C613   1.405       .  A
C613        C614   1.400       .  A
C613        N620   1.433       .  S
C614        C615   1.404       .  A
C614        H619   1.066       .  S
C615        C616   1.435       .  A
C616        N617   1.433       .  S
N617        H621   1.042       .  S
N617        H622   1.041       .  S
N620        H623   1.046       .  S
N620        H624   1.046       .  S
C625        C626   1.410       .  A
C625        C630   1.404       .  A
C625        H632   1.083       .  S
C626        C627   1.424       .  A
C627        C628   1.398       .  A
C627        N634   1.429       .  S
C628        C629   1.392       .  A
C628        H633   1.085       .  S
C629        C630   1.414       .  A
C630        N631   1.438       .  S
N631        H635   1.046       .  S
N631        H636   1.043       .  S
N634        H637   1.046       .  S
N634        H638   1.046       .  S
C639        C640   1.393       .  A
C639        C644   1.398       .  A
C639        H646   1.085       .  S
C640        C641   1.407       .  A
C641        C642   1.401       .  A
C641        N648   1.440       .  S
C642        C643   1.424       .  A
C642        H647   1.080       .  S
C643        C644   1.436       .  A
C644        N645   1.432       .  S
N645        H649   1.046       .  S
N645        H650   1.024       .  S
N648        H651   1.042       .  S
N648        H652   1.046       .  S
C653        C654   1.425       .  A
C653        C658   1.403       .  A
C653        H660   1.080       .  S
C654        C655   1.438       .  A
C655        C656   1.401       .  A
C655        N662   1.432       .  S
C656        C657   1.392       .  A
C656        H661   1.085       .  S
C657        C658   1.408       .  A
C658        N659   1.440       .  S
N659        H663   1.046       .  S
N659        H664   1.042       .  S
N662        H665   1.045   1_455  S
N662        H666   1.023   1_455  S
C667        C668   1.406       .  A
C667        C672   1.402       .  A
C667        H674   1.081       .  S
C668        C669   1.427       .  A
C669        C670   1.401       .  A
C669        N676   1.439       .  S
C670        C671   1.398       .  A
C670        H675   1.084       .  S
C671        C672   1.412       .  A
C672        N673   1.438       .  S
N673        H677   1.046       .  S
N673        H678   1.046       .  S
N676        H679   1.042       .  S
N676        H680   1.046       .  S
C681        C682   1.387       .  A
C681        C686   1.397       .  A
C681        H688   1.086       .  S
C682        C683   1.405       .  A
C683        C684   1.403       .  A
C683        N690   1.438       .  S
C684        C685   1.419       .  A
C684        H689   1.077       .  S
C685        C686   1.446       .  A
C686        N687   1.436       .  S
N687        H691   1.046       .  S
N687        H692   1.019       .  S
N690        H693   1.044       .  S
N690        H694   1.046       .  S
C695        C696   1.393       .  A
C695        C700   1.395       .  A
C695        H702   1.085       .  S
C696        C697   1.411       .  A
C697        C698   1.405       .  A
C697        N704   1.438       .  S
C698        C699   1.413       .  A
C698        H703   1.079       .  S
C699        C700   1.429       .  A
C700        N701   1.426       .  S
N701        H705   1.040       .  S
N701        H706   1.039       .  S
N704        H707   1.044       .  S
N704        H708   1.046       .  S
N709        N710   1.318       .  A
N709        N715   1.314       .  A
N709       Mn738   2.185       .  S
N710        C717   1.350       .  A
N711        N713   1.317       .  A
N711        N712   1.321       .  A
N711       Mn727   2.201       .  S
N712        C718   1.351       .  A
N713        N714   1.320       .  A
N713       Mn738   2.202       .  S
N714        C718   1.351       .  A
N715        N716   1.319       .  A
N715       Mn727   2.201       .  S
N716        C717   1.355       .  A
C717        C848   1.479       .  S
C718        C806   1.467       .  S
N719        N725   1.317       .  A
N719        N720   1.321       .  A
N719       Mn749   2.202       .  S
N720        C728   1.353       .  A
N721        N722   1.321       .  A
N721        N723   1.315       .  A
N721       Mn727   2.199       .  S
N722        C729   1.352       .  A
N723        N724   1.321       .  A
N723       Mn749   2.207       .  S
N724        C729   1.353       .  A
N725        N726   1.321       .  A
N725       Mn727   2.214       .  S
N726        C728   1.354       .  A
Mn727      Cl751   2.544       .  S
C728        C834   1.478       .  S
C729        C873   1.471       .  S
N730        N731   1.319       .  A
N730        N736   1.315       .  A
N730       Mn738   2.200       .  S
N731        C739   1.353       .  A
N732        N734   1.314       .  A
N732        N733   1.318       .  A
N732       Mn750   2.187       .  S
N733        C740   1.350       .  A
N734        N735   1.321       .  A
N734       Mn738   2.201       .  S
N735        C740   1.354       .  A
N736        N737   1.320       .  A
N736       Mn750   2.204       .  S
N737        C739   1.355       .  A
Mn738      Cl751   2.543       .  S
C739        C775   1.484       .  S
C740        C817   1.472       .  S
N741        N742   1.319       .  A
N741        N747   1.315       .  A
N741       Mn749   2.197       .  S
N742        C752   1.352       .  A
N743        N744   1.321       .  A
N743        N745   1.315       .  A
N743       Mn750   2.202       .  S
N744        C753   1.354       .  A
N745        N746   1.321       .  A
N745       Mn749   2.208       .  S
N746        C753   1.355       .  A
N747        N748   1.321       .  A
N747       Mn750   2.202       .  S
N748        C752   1.352       .  A
Mn749      Cl751   2.547       .  S
Mn750      Cl751   2.545       .  S
C752        C859   1.468       .  S
C753        C789   1.486       .  S
C754        C778   1.547       .  S
C754       C1113   1.558       .  S
C754        C939   1.509       .  S
C754        C949   1.491       .  S
C755        C792   1.548       .  S
C755        C759   1.566       .  S
C755        C946   1.508       .  S
C755        C950   1.499       .  S
C756        C803   1.536       .  S
C756       C1112   1.545       .  S
C756        C940   1.514       .  S
C756        C944   1.491       .  S
C757        C831   1.569       .  S
C757        C758   1.553       .  S
C757        C945   1.508       .  S
C757        C947   1.530       .  S
C758       C1110   1.545   1_545  S
C759       C1108   1.558   1_545  S
C760        C820   1.563       .  S
C760        C762   1.517       .  S
C760       C1119   1.545       .  S
C760        C772   1.496       .  S
C761        C845   1.534       .  S
C761        C763   1.507   1_554  S
C761       C1120   1.551       .  S
C761        C767   1.490   1_554  S
C762        C931   1.509   1_554  S
C763        C933   1.514       .  S
C764        C876   1.547       .  S
C764        C766   1.545   1_545  S
C764        C768   1.496       .  S
C764        C770   1.511       .  S
C765       C1114   1.545       .  S
C765        C771   1.543   1_565  S
C766       C1115   1.551       .  S
C767        C933   1.491       .  S
C767       C1122   1.306   1_556  D
C768        C934   1.508   1_554  S
C768       C1121   1.306   1_544  D
C769        C932   1.508   1_554  S
C769        C771   1.527       .  S
C770        C934   1.530   1_554  S
C771        C862   1.560       .  S
C771        C773   1.495       .  S
C772        C931   1.491   1_554  S
C772       C1127   1.310       .  D
C773        C932   1.499   1_554  S
C773       C1126   1.310   1_545  D
C774        C775   1.402       .  A
C774        C779   1.408       .  A
C774        H781   1.083       .  S
C775        C776   1.412       .  A
C776        C777   1.395       .  A
C776        N783   1.433       .  S
C777        C778   1.415       .  A
C777        H782   1.082       .  S
C778        C779   1.419       .  A
C779        N780   1.432       .  S
N780        H784   1.046       .  S
N780        H785   1.045       .  S
N783        H786   1.045       .  S
N783        H787   1.045       .  S
C788        C789   1.401       .  A
C788        C793   1.404       .  A
C788        H795   1.084       .  S
C789        C790   1.405       .  A
C790        C791   1.400       .  A
C790        N797   1.433       .  S
C791        C792   1.404       .  A
C791        H796   1.066       .  S
C792        C793   1.435       .  A
C793        N794   1.433       .  S
N794        H798   1.042       .  S
N794        H799   1.041       .  S
N797        H800   1.046       .  S
N797        H801   1.046       .  S
C802        C803   1.410       .  A
C802        C807   1.404       .  A
C802        H809   1.083       .  S
C803        C804   1.424       .  A
C804        C805   1.398       .  A
C804        N811   1.429       .  S
C805        C806   1.392       .  A
C805        H810   1.085       .  S
C806        C807   1.414       .  A
C807        N808   1.438       .  S
N808        H812   1.046       .  S
N808        H813   1.043       .  S
N811        H814   1.046       .  S
N811        H815   1.046       .  S
C816        C817   1.393       .  A
C816        C821   1.398       .  A
C816        H823   1.085       .  S
C817        C818   1.407       .  A
C818        C819   1.401       .  A
C818        N825   1.440       .  S
C819        C820   1.424       .  A
C819        H824   1.080       .  S
C820        C821   1.436       .  A
C821        N822   1.432       .  S
N822        H826   1.046       .  S
N822        H827   1.024   1_655  S
N825        H828   1.042       .  S
N825        H829   1.046       .  S
C830        C831   1.425       .  A
C830        C835   1.403       .  A
C830        H837   1.080       .  S
C831        C832   1.438       .  A
C832        C833   1.401       .  A
C832        N839   1.432       .  S
C833        C834   1.392       .  A
C833        H838   1.085       .  S
C834        C835   1.408       .  A
C835        N836   1.440       .  S
N836        H840   1.046       .  S
N836        H841   1.042       .  S
N839        H842   1.045       .  S
N839        H843   1.023       .  S
C844        C845   1.406       .  A
C844        C849   1.402       .  A
C844        H851   1.081       .  S
C845        C846   1.427       .  A
C846        C847   1.401       .  A
C846        N853   1.439       .  S
C847        C848   1.398       .  A
C847        H852   1.084       .  S
C848        C849   1.412       .  A
C849        N850   1.438       .  S
N850        H854   1.046       .  S
N850        H855   1.046       .  S
N853        H856   1.042       .  S
N853        H857   1.046       .  S
C858        C859   1.387       .  A
C858        C863   1.397       .  A
C858        H865   1.086       .  S
C859        C860   1.405       .  A
C860        C861   1.403       .  A
C860        N867   1.438       .  S
C861        C862   1.419       .  A
C861        H866   1.077       .  S
C862        C863   1.446       .  A
C863        N864   1.436       .  S
N864        H868   1.046       .  S
N864        H869   1.019   1_545  S
N867        H870   1.044       .  S
N867        H871   1.046       .  S
C872        C873   1.393       .  A
C872        C877   1.395       .  A
C872        H879   1.085       .  S
C873        C874   1.411       .  A
C874        C875   1.405       .  A
C874        N881   1.438       .  S
C875        C876   1.413       .  A
C875        H880   1.079       .  S
C876        C877   1.429       .  A
C877        N878   1.426       .  S
N878        H882   1.040   1_545  S
N878        H883   1.039       .  S
N881        H884   1.044       .  S
N881        H885   1.046       .  S
N886        N887   1.318       .  A
N886        N892   1.314       .  A
N886       Mn915   2.185       .  S
N887        C894   1.350       .  A
N888        N890   1.317       .  A
N888        N889   1.321       .  A
N888       Mn904   2.201       .  S
N889        C895   1.351       .  A
N890        N891   1.320       .  A
N890       Mn915   2.202       .  S
N891        C895   1.351       .  A
N892        N893   1.319       .  A
N892       Mn904   2.201       .  S
N893        C894   1.355       .  A
C894       C1025   1.479       .  S
C895        C983   1.467       .  S
N896        N902   1.317       .  A
N896        N897   1.321       .  A
N896       Mn926   2.202       .  S
N897        C905   1.353       .  A
N898        N899   1.321       .  A
N898        N900   1.315       .  A
N898       Mn904   2.199       .  S
N899        C906   1.352       .  A
N900        N901   1.321       .  A
N900       Mn926   2.207       .  S
N901        C906   1.353       .  A
N902        N903   1.321       .  A
N902       Mn904   2.214       .  S
N903        C905   1.354       .  A
Mn904      Cl928   2.544       .  S
C905       C1011   1.478       .  S
C906       C1050   1.471       .  S
N907        N908   1.319       .  A
N907        N913   1.315       .  A
N907       Mn915   2.200       .  S
N908        C916   1.353       .  A
N909        N911   1.314       .  A
N909        N910   1.318       .  A
N909       Mn927   2.187       .  S
N910        C917   1.350       .  A
N911        N912   1.321       .  A
N911       Mn915   2.201       .  S
N912        C917   1.354       .  A
N913        N914   1.320       .  A
N913       Mn927   2.204       .  S
N914        C916   1.355       .  A
Mn915      Cl928   2.543       .  S
C916        C952   1.485       .  S
C917        C994   1.472       .  S
N918        N919   1.319       .  A
N918        N924   1.315       .  A
N918       Mn926   2.197       .  S
N919        C929   1.352       .  A
N920        N921   1.321       .  A
N920        N922   1.315       .  A
N920       Mn927   2.202       .  S
N921        C930   1.354       .  A
N922        N923   1.321       .  A
N922       Mn926   2.208       .  S
N923        C930   1.355       .  A
N924        N925   1.321       .  A
N924       Mn927   2.202       .  S
N925        C929   1.352       .  A
Mn926      Cl928   2.547       .  S
Mn927      Cl928   2.545       .  S
C929       C1036   1.468       .  S
C930        C966   1.486       .  S
C931        C955   1.547       .  S
C931       C1290   1.558       .  S
C932        C969   1.548       .  S
C932        C936   1.566       .  S
C933        C980   1.536       .  S
C933       C1289   1.545       .  S
C934       C1008   1.569       .  S
C934        C935   1.553       .  S
C935       C1287   1.545   1_545  S
C936       C1285   1.558   1_545  S
C937        C997   1.563       .  S
C937        C939   1.517       .  S
C937       C1296   1.545       .  S
C937        C949   1.496       .  S
C938       C1022   1.534       .  S
C938        C940   1.507       .  S
C938       C1297   1.551       .  S
C938        C944   1.490       .  S
C941       C1053   1.547       .  S
C941        C943   1.545   1_545  S
C941        C945   1.496       .  S
C941        C947   1.511       .  S
C942       C1291   1.545       .  S
C942        C948   1.543   1_565  S
C943       C1292   1.551       .  S
C944       C1299   1.306       .  D
C945       C1298   1.306   1_545  D
C946        C948   1.527       .  S
C948       C1039   1.560       .  S
C948        C950   1.495       .  S
C949       C1304   1.310       .  D
C950       C1303   1.310   1_545  D
C951        C952   1.402       .  A
C951        C956   1.408       .  A
C951        H958   1.083       .  S
C952        C953   1.412       .  A
C953        C954   1.395       .  A
C953        N960   1.433       .  S
C954        C955   1.415       .  A
C954        H959   1.082       .  S
C955        C956   1.419       .  A
C956        N957   1.432       .  S
N957        H961   1.046       .  S
N957        H962   1.045       .  S
N960        H963   1.045       .  S
N960        H964   1.045       .  S
C965        C966   1.401       .  A
C965        C970   1.404       .  A
C965        H972   1.084       .  S
C966        C967   1.405       .  A
C967        C968   1.400       .  A
C967        N974   1.433       .  S
C968        C969   1.404       .  A
C968        H973   1.066       .  S
C969        C970   1.435       .  A
C970        N971   1.433       .  S
N971        H975   1.042       .  S
N971        H976   1.041       .  S
N974        H977   1.046       .  S
N974        H978   1.046       .  S
C979        C980   1.410       .  A
C979        C984   1.404       .  A
C979        H986   1.083       .  S
C980        C981   1.424       .  A
C981        C982   1.398       .  A
C981        N988   1.429       .  S
C982        C983   1.392       .  A
C982        H987   1.085       .  S
C983        C984   1.414       .  A
C984        N985   1.438       .  S
N985        H989   1.046       .  S
N985        H990   1.043       .  S
N988        H991   1.046       .  S
N988        H992   1.046       .  S
C993        C994   1.393       .  A
C993        C998   1.398       .  A
C993       H1000   1.085       .  S
C994        C995   1.407       .  A
C995        C996   1.401       .  A
C995       N1002   1.440       .  S
C996        C997   1.424       .  A
C996       H1001   1.080       .  S
C997        C998   1.436       .  A
C998        N999   1.432       .  S
N999       H1003   1.046       .  S
N999       H1004   1.024   1_655  S
N1002      H1005   1.042       .  S
N1002      H1006   1.046       .  S
C1007      C1008   1.425       .  A
C1007      C1012   1.403       .  A
C1007      H1014   1.080       .  S
C1008      C1009   1.438       .  A
C1009      C1010   1.401       .  A
C1009      N1016   1.432       .  S
C1010      C1011   1.392       .  A
C1010      H1015   1.085       .  S
C1011      C1012   1.408       .  A
C1012      N1013   1.440       .  S
N1013      H1017   1.046       .  S
N1013      H1018   1.042       .  S
N1016      H1019   1.045       .  S
N1016      H1020   1.023       .  S
C1021      C1022   1.406       .  A
C1021      C1026   1.402       .  A
C1021      H1028   1.081       .  S
C1022      C1023   1.427       .  A
C1023      C1024   1.401       .  A
C1023      N1030   1.439       .  S
C1024      C1025   1.398       .  A
C1024      H1029   1.084       .  S
C1025      C1026   1.412       .  A
C1026      N1027   1.438       .  S
N1027      H1031   1.046       .  S
N1027      H1032   1.046       .  S
N1030      H1033   1.042       .  S
N1030      H1034   1.046       .  S
C1035      C1036   1.387       .  A
C1035      C1040   1.397       .  A
C1035      H1042   1.086       .  S
C1036      C1037   1.405       .  A
C1037      C1038   1.403       .  A
C1037      N1044   1.438       .  S
C1038      C1039   1.419       .  A
C1038      H1043   1.077       .  S
C1039      C1040   1.446       .  A
C1040      N1041   1.436       .  S
N1041      H1045   1.046       .  S
N1041      H1046   1.019   1_545  S
N1044      H1047   1.044       .  S
N1044      H1048   1.046       .  S
C1049      C1050   1.393       .  A
C1049      C1054   1.395       .  A
C1049      H1056   1.085       .  S
C1050      C1051   1.411       .  A
C1051      C1052   1.405       .  A
C1051      N1058   1.438       .  S
C1052      C1053   1.413       .  A
C1052      H1057   1.079       .  S
C1053      C1054   1.429       .  A
C1054      N1055   1.426       .  S
N1055      H1059   1.040   1_545  S
N1055      H1060   1.039       .  S
N1058      H1061   1.044       .  S
N1058      H1062   1.046       .  S
N1063      N1064   1.318       .  A
N1063      N1069   1.314       .  A
N1063     Mn1092   2.185       .  S
N1064      C1071   1.350       .  A
N1065      N1067   1.317       .  A
N1065      N1066   1.321       .  A
N1065     Mn1081   2.201       .  S
N1066      C1072   1.351       .  A
N1067      N1068   1.320       .  A
N1067     Mn1092   2.202       .  S
N1068      C1072   1.351       .  A
N1069      N1070   1.319       .  A
N1069     Mn1081   2.201       .  S
N1070      C1071   1.355       .  A
C1071      C1202   1.479       .  S
C1072      C1160   1.467       .  S
N1073      N1079   1.317       .  A
N1073      N1074   1.321       .  A
N1073     Mn1103   2.202       .  S
N1074      C1082   1.353       .  A
N1075      N1076   1.321       .  A
N1075      N1077   1.315       .  A
N1075     Mn1081   2.199       .  S
N1076      C1083   1.352       .  A
N1077      N1078   1.321       .  A
N1077     Mn1103   2.207       .  S
N1078      C1083   1.353       .  A
N1079      N1080   1.321       .  A
N1079     Mn1081   2.214       .  S
N1080      C1082   1.354       .  A
Mn1081    Cl1105   2.544       .  S
C1082      C1188   1.478       .  S
C1083      C1227   1.471       .  S
N1084      N1085   1.319       .  A
N1084      N1090   1.315       .  A
N1084     Mn1092   2.200       .  S
N1085      C1093   1.353       .  A
N1086      N1088   1.314       .  A
N1086      N1087   1.318       .  A
N1086     Mn1104   2.187       .  S
N1087      C1094   1.350       .  A
N1088      N1089   1.321       .  A
N1088     Mn1092   2.201       .  S
N1089      C1094   1.354       .  A
N1090      N1091   1.320       .  A
N1090     Mn1104   2.204       .  S
N1091      C1093   1.355       .  A
Mn1092    Cl1105   2.543       .  S
C1093      C1129   1.484       .  S
C1094      C1171   1.472       .  S
N1095      N1096   1.319       .  A
N1095      N1101   1.315       .  A
N1095     Mn1103   2.197       .  S
N1096      C1106   1.352       .  A
N1097      N1098   1.321       .  A
N1097      N1099   1.315       .  A
N1097     Mn1104   2.202       .  S
N1098      C1107   1.354       .  A
N1099      N1100   1.321       .  A
N1099     Mn1103   2.208       .  S
N1100      C1107   1.355       .  A
N1101      N1102   1.321       .  A
N1101     Mn1104   2.202       .  S
N1102      C1106   1.352       .  A
Mn1103    Cl1105   2.547       .  S
Mn1104    Cl1105   2.545       .  S
C1106      C1213   1.468       .  S
C1107      C1143   1.486       .  S
C1108      C1132   1.547       .  S
C1108      C1293   1.509       .  S
C1108      C1303   1.491       .  S
C1109      C1146   1.548       .  S
C1109      C1113   1.566       .  S
C1109      C1300   1.508       .  S
C1109      C1304   1.499       .  S
C1110      C1157   1.536       .  S
C1110      C1294   1.514       .  S
C1110      C1298   1.491       .  S
C1111      C1185   1.569       .  S
C1111      C1112   1.553       .  S
C1111      C1299   1.508       .  S
C1111      C1301   1.530       .  S
C1114      C1174   1.563       .  S
C1114      C1116   1.517       .  S
C1114      C1126   1.496       .  S
C1115      C1199   1.534       .  S
C1115      C1117   1.507   1_554  S
C1115      C1121   1.490   1_554  S
C1116      C1285   1.509   1_554  S
C1117      C1287   1.514       .  S
C1118      C1230   1.547       .  S
C1118      C1120   1.545       .  S
C1118      C1122   1.496       .  S
C1118      C1124   1.511       .  S
C1119      C1125   1.543       .  S
C1121      C1287   1.491       .  S
C1122      C1288   1.508   1_554  S
C1123      C1286   1.508   1_554  S
C1123      C1125   1.527       .  S
C1124      C1288   1.530   1_554  S
C1125      C1216   1.560       .  S
C1125      C1127   1.495       .  S
C1126      C1285   1.491   1_554  S
C1127      C1286   1.499   1_554  S
C1128      C1129   1.402       .  A
C1128      C1133   1.408       .  A
C1128      H1135   1.083       .  S
C1129      C1130   1.412       .  A
C1130      C1131   1.395       .  A
C1130      N1137   1.433       .  S
C1131      C1132   1.415       .  A
C1131      H1136   1.082       .  S
C1132      C1133   1.419       .  A
C1133      N1134   1.432       .  S
N1134      H1138   1.046       .  S
N1134      H1139   1.045       .  S
N1137      H1140   1.045       .  S
N1137      H1141   1.045       .  S
C1142      C1143   1.401       .  A
C1142      C1147   1.404       .  A
C1142      H1149   1.084       .  S
C1143      C1144   1.405       .  A
C1144      C1145   1.400       .  A
C1144      N1151   1.433       .  S
C1145      C1146   1.404       .  A
C1145      H1150   1.066       .  S
C1146      C1147   1.435       .  A
C1147      N1148   1.433       .  S
N1148      H1152   1.042       .  S
N1148      H1153   1.041       .  S
N1151      H1154   1.046       .  S
N1151      H1155   1.046       .  S
C1156      C1157   1.410       .  A
C1156      C1161   1.404       .  A
C1156      H1163   1.083       .  S
C1157      C1158   1.424       .  A
C1158      C1159   1.398       .  A
C1158      N1165   1.429       .  S
C1159      C1160   1.392       .  A
C1159      H1164   1.085       .  S
C1160      C1161   1.414       .  A
C1161      N1162   1.438       .  S
N1162      H1166   1.046       .  S
N1162      H1167   1.043       .  S
N1165      H1168   1.046       .  S
N1165      H1169   1.046       .  S
C1170      C1171   1.393       .  A
C1170      C1175   1.398       .  A
C1170      H1177   1.085       .  S
C1171      C1172   1.407       .  A
C1172      C1173   1.401       .  A
C1172      N1179   1.440       .  S
C1173      C1174   1.424       .  A
C1173      H1178   1.080       .  S
C1174      C1175   1.436       .  A
C1175      N1176   1.432       .  S
N1176      H1180   1.046       .  S
N1176      H1181   1.024   1_655  S
N1179      H1182   1.042       .  S
N1179      H1183   1.046       .  S
C1184      C1185   1.425       .  A
C1184      C1189   1.403       .  A
C1184      H1191   1.080       .  S
C1185      C1186   1.438       .  A
C1186      C1187   1.401       .  A
C1186      N1193   1.432       .  S
C1187      C1188   1.392       .  A
C1187      H1192   1.085       .  S
C1188      C1189   1.408       .  A
C1189      N1190   1.440       .  S
N1190      H1194   1.046       .  S
N1190      H1195   1.042       .  S
N1193      H1196   1.045       .  S
N1193      H1197   1.023       .  S
C1198      C1199   1.406       .  A
C1198      C1203   1.402       .  A
C1198      H1205   1.081       .  S
C1199      C1200   1.427       .  A
C1200      C1201   1.401       .  A
C1200      N1207   1.439       .  S
C1201      C1202   1.398       .  A
C1201      H1206   1.084       .  S
C1202      C1203   1.412       .  A
C1203      N1204   1.438       .  S
N1204      H1208   1.046       .  S
N1204      H1209   1.046       .  S
N1207      H1210   1.042       .  S
N1207      H1211   1.046       .  S
C1212      C1213   1.387       .  A
C1212      C1217   1.397       .  A
C1212      H1219   1.086       .  S
C1213      C1214   1.405       .  A
C1214      C1215   1.403       .  A
C1214      N1221   1.438       .  S
C1215      C1216   1.419       .  A
C1215      H1220   1.077       .  S
C1216      C1217   1.446       .  A
C1217      N1218   1.436       .  S
N1218      H1222   1.046       .  S
N1218      H1223   1.019       .  S
N1221      H1224   1.044       .  S
N1221      H1225   1.046       .  S
C1226      C1227   1.393       .  A
C1226      C1231   1.395       .  A
C1226      H1233   1.085       .  S
C1227      C1228   1.411       .  A
C1228      C1229   1.405       .  A
C1228      N1235   1.438       .  S
C1229      C1230   1.413       .  A
C1229      H1234   1.079       .  S
C1230      C1231   1.429       .  A
C1231      N1232   1.426       .  S
N1232      H1236   1.040       .  S
N1232      H1237   1.039       .  S
N1235      H1238   1.044       .  S
N1235      H1239   1.046       .  S
N1240      N1241   1.318       .  A
N1240      N1246   1.314       .  A
N1240     Mn1269   2.185       .  S
N1241      C1248   1.350       .  A
N1242      N1244   1.317       .  A
N1242      N1243   1.321       .  A
N1242     Mn1258   2.201       .  S
N1243      C1249   1.351       .  A
N1244      N1245   1.320       .  A
N1244     Mn1269   2.202       .  S
N1245      C1249   1.351       .  A
N1246      N1247   1.319       .  A
N1246     Mn1258   2.201       .  S
N1247      C1248   1.355       .  A
C1248      C1379   1.479       .  S
C1249      C1337   1.467       .  S
N1250      N1256   1.317       .  A
N1250      N1251   1.321       .  A
N1250     Mn1280   2.202       .  S
N1251      C1259   1.353       .  A
N1252      N1253   1.321       .  A
N1252      N1254   1.315       .  A
N1252     Mn1258   2.199       .  S
N1253      C1260   1.352       .  A
N1254      N1255   1.321       .  A
N1254     Mn1280   2.207       .  S
N1255      C1260   1.353       .  A
N1256      N1257   1.321       .  A
N1256     Mn1258   2.214       .  S
N1257      C1259   1.354       .  A
Mn1258    Cl1282   2.544       .  S
C1259      C1365   1.478       .  S
C1260      C1404   1.471       .  S
N1261      N1262   1.319       .  A
N1261      N1267   1.315       .  A
N1261     Mn1269   2.200       .  S
N1262      C1270   1.353       .  A
N1263      N1265   1.314       .  A
N1263      N1264   1.318       .  A
N1263     Mn1281   2.187       .  S
N1264      C1271   1.350       .  A
N1265      N1266   1.321       .  A
N1265     Mn1269   2.201       .  S
N1266      C1271   1.354       .  A
N1267      N1268   1.320       .  A
N1267     Mn1281   2.204       .  S
N1268      C1270   1.355       .  A
Mn1269    Cl1282   2.543       .  S
C1270      C1306   1.485       .  S
C1271      C1348   1.472       .  S
N1272      N1273   1.319       .  A
N1272      N1278   1.315       .  A
N1272     Mn1280   2.197       .  S
N1273      C1283   1.352       .  A
N1274      N1275   1.321       .  A
N1274      N1276   1.315       .  A
N1274     Mn1281   2.202       .  S
N1275      C1284   1.354       .  A
N1276      N1277   1.321       .  A
N1276     Mn1280   2.208       .  S
N1277      C1284   1.355       .  A
N1278      N1279   1.321       .  A
N1278     Mn1281   2.202       .  S
N1279      C1283   1.352       .  A
Mn1280    Cl1282   2.547       .  S
Mn1281    Cl1282   2.545       .  S
C1283      C1390   1.468       .  S
C1284      C1320   1.486       .  S
C1285      C1309   1.547       .  S
C1286      C1323   1.548       .  S
C1286      C1290   1.566       .  S
C1287      C1334   1.536       .  S
C1288      C1362   1.569       .  S
C1288      C1289   1.553       .  S
C1291      C1351   1.563       .  S
C1291      C1293   1.517       .  S
C1291      C1303   1.496       .  S
C1292      C1376   1.534       .  S
C1292      C1294   1.507       .  S
C1292      C1298   1.490       .  S
C1295      C1407   1.547       .  S
C1295      C1297   1.545       .  S
C1295      C1299   1.496       .  S
C1295      C1301   1.511       .  S
C1296      C1302   1.543       .  S
C1300      C1302   1.527       .  S
C1302      C1393   1.560       .  S
C1302      C1304   1.495       .  S
C1305      C1306   1.402       .  A
C1305      C1310   1.408       .  A
C1305      H1312   1.083       .  S
C1306      C1307   1.412       .  A
C1307      C1308   1.395       .  A
C1307      N1314   1.433       .  S
C1308      C1309   1.415       .  A
C1308      H1313   1.082       .  S
C1309      C1310   1.419       .  A
C1310      N1311   1.432       .  S
N1311      H1315   1.046       .  S
N1311      H1316   1.045       .  S
N1314      H1317   1.045       .  S
N1314      H1318   1.045       .  S
C1319      C1320   1.401       .  A
C1319      C1324   1.404       .  A
C1319      H1326   1.084       .  S
C1320      C1321   1.405       .  A
C1321      C1322   1.400       .  A
C1321      N1328   1.433       .  S
C1322      C1323   1.404       .  A
C1322      H1327   1.066       .  S
C1323      C1324   1.435       .  A
C1324      N1325   1.433       .  S
N1325      H1329   1.042       .  S
N1325      H1330   1.041       .  S
N1328      H1331   1.046       .  S
N1328      H1332   1.046       .  S
C1333      C1334   1.410       .  A
C1333      C1338   1.404       .  A
C1333      H1340   1.083       .  S
C1334      C1335   1.424       .  A
C1335      C1336   1.398       .  A
C1335      N1342   1.429       .  S
C1336      C1337   1.392       .  A
C1336      H1341   1.085       .  S
C1337      C1338   1.414       .  A
C1338      N1339   1.438       .  S
N1339      H1343   1.046       .  S
N1339      H1344   1.043       .  S
N1342      H1345   1.046       .  S
N1342      H1346   1.046       .  S
C1347      C1348   1.393       .  A
C1347      C1352   1.398       .  A
C1347      H1354   1.085       .  S
C1348      C1349   1.407       .  A
C1349      C1350   1.401       .  A
C1349      N1356   1.440       .  S
C1350      C1351   1.424       .  A
C1350      H1355   1.080       .  S
C1351      C1352   1.436       .  A
C1352      N1353   1.432       .  S
N1353      H1357   1.046       .  S
N1353      H1358   1.024   1_655  S
N1356      H1359   1.042       .  S
N1356      H1360   1.046       .  S
C1361      C1362   1.425       .  A
C1361      C1366   1.403       .  A
C1361      H1368   1.080       .  S
C1362      C1363   1.438       .  A
C1363      C1364   1.401       .  A
C1363      N1370   1.432       .  S
C1364      C1365   1.392       .  A
C1364      H1369   1.085       .  S
C1365      C1366   1.408       .  A
C1366      N1367   1.440       .  S
N1367      H1371   1.046       .  S
N1367      H1372   1.042       .  S
N1370      H1373   1.045       .  S
N1370      H1374   1.023       .  S
C1375      C1376   1.406       .  A
C1375      C1380   1.402       .  A
C1375      H1382   1.081       .  S
C1376      C1377   1.427       .  A
C1377      C1378   1.401       .  A
C1377      N1384   1.439       .  S
C1378      C1379   1.398       .  A
C1378      H1383   1.084       .  S
C1379      C1380   1.412       .  A
C1380      N1381   1.438       .  S
N1381      H1385   1.046       .  S
N1381      H1386   1.046       .  S
N1384      H1387   1.042       .  S
N1384      H1388   1.046       .  S
C1389      C1390   1.387       .  A
C1389      C1394   1.397       .  A
C1389      H1396   1.086       .  S
C1390      C1391   1.405       .  A
C1391      C1392   1.403       .  A
C1391      N1398   1.438       .  S
C1392      C1393   1.419       .  A
C1392      H1397   1.077       .  S
C1393      C1394   1.446       .  A
C1394      N1395   1.436       .  S
N1395      H1399   1.046       .  S
N1395      H1400   1.019       .  S
N1398      H1401   1.044       .  S
N1398      H1402   1.046       .  S
C1403      C1404   1.393       .  A
C1403      C1408   1.395       .  A
C1403      H1410   1.085       .  S
C1404      C1405   1.411       .  A
C1405      C1406   1.405       .  A
C1405      N1412   1.438       .  S
C1406      C1407   1.413       .  A
C1406      H1411   1.079       .  S
C1407      C1408   1.429       .  A
C1408      N1409   1.426       .  S
N1409      H1413   1.040       .  S
N1409      H1414   1.039       .  S
N1412      H1415   1.044       .  S
N1412      H1416   1.046       .  S
