geometry optimzed in LAMMPS
_audit_creation_date              2020-11-30 
_audit_creation_method            'lammps2cif' 
_symmetry_space_group_name_H-M    'P1' 
_symmetry_Int_Tables_number       1 
_symmetry_cell_setting            triclinic 
loop_ 
_symmetry_equiv_pos_as_xyz 
  x,y,z 
_cell_length_a                    25.61126050704809 
_cell_length_b                    25.443745185496024 
_cell_length_c                    25.432309155826417 
_cell_angle_alpha                 91.00756255851209 
_cell_angle_beta                  90.12347976028471 
_cell_angle_gamma                 89.74844765128063 
loop_ 
_atom_site_label 
_atom_site_type_symbol 
_atom_site_fract_x 
_atom_site_fract_y 
_atom_site_fract_z 
_atom_site_charge 
O1          O  0.43928240  0.45522971  0.74118751    -0.70610
O2          O  0.55314680  0.55673537  0.73987769    -0.70830
O3          O  0.44692681  0.56189580  0.73434417    -0.70690
O4          O  0.54665592  0.44987382  0.74875363    -0.70690
O5          O  0.55708112  0.44902272  0.66398247    -0.70650
O6          O  0.44502072  0.54527633  0.65072395    -0.70670
O7          O  0.54816244  0.55172678  0.65560824    -0.70610
O8          O  0.45473055  0.44116526  0.65863843    -0.70800
V9          V  0.49659518  0.50551297  0.74015166     1.35240
V10         V  0.50104877  0.49706513  0.65912318     1.35170
C11         C  0.42749063  0.43140021  0.69821429     0.78630
C12         C  0.56891331  0.57270231  0.69538636     0.78690
C13         C  0.42831118  0.57235374  0.68948082     0.78560
C14         C  0.57025867  0.43210773  0.70836021     0.78520
O15         O  0.74597341  0.45087672  0.34322565    -0.70610
O16         O  0.74534878  0.56615067  0.44118824    -0.70830
O17         O  0.74375829  0.55612396  0.33592307    -0.70690
O18         O  0.74522103  0.46303013  0.44853760    -0.70690
O19         O  0.82966557  0.45944865  0.44889994    -0.70650
O20         O  0.82859974  0.55935339  0.33677434    -0.70670
O21         O  0.83021926  0.56449270  0.44297873    -0.70610
O22         O  0.83064865  0.45321154  0.34144326    -0.70800
V23         V  0.74688113  0.50901921  0.39198229     1.35240
V24         V  0.82831624  0.50909865  0.39224922     1.35170
C25         C  0.78864979  0.43251236  0.32534980     0.78630
C26         C  0.78783442  0.58292239  0.46059177     0.78690
C27         C  0.78528118  0.57487819  0.31805798     0.78560
C28         C  0.78647490  0.44533417  0.46867945     0.78520
O29         O  0.55382876  0.74290954  0.36961234    -0.70610
O30         O  0.44716953  0.74639883  0.47117611    -0.70830
O31         O  0.45047171  0.75008080  0.36659788    -0.70690
O32         O  0.55187291  0.73936779  0.47468694    -0.70690
O33         O  0.55831837  0.82453369  0.47771735    -0.70650
O34         O  0.45501332  0.83532626  0.37024105    -0.70670
O35         O  0.45209780  0.83158939  0.47628851    -0.70610
O36         O  0.56090129  0.82738549  0.37141546    -0.70800
V37         V  0.50102563  0.74655195  0.42072911     1.35240
V38         V  0.50647042  0.82827166  0.42413805     1.35170
C39         C  0.57587605  0.78338042  0.35227651     0.78630
C40         C  0.43019802  0.78927760  0.49002641     0.78690
C41         C  0.43594701  0.79413944  0.34950771     0.78560
C42         C  0.57306829  0.78011589  0.49386755     0.78520
O43         O  0.16906589  0.43817636  0.35500460    -0.70610
O44         O  0.15953327  0.55257957  0.45301218    -0.70830
O45         O  0.16970713  0.54575012  0.34814052    -0.70690
O46         O  0.16262947  0.44555731  0.46013419    -0.70690
O47         O  0.24714557  0.44886862  0.46674438    -0.70650
O48         O  0.25419822  0.54446493  0.35567894    -0.70670
O49         O  0.24409944  0.55387757  0.45994102    -0.70610
O50         O  0.25335834  0.43836757  0.36256126    -0.70800
V51         V  0.16674320  0.49554320  0.40406578     1.35240
V52         V  0.24791037  0.49644619  0.41084649     1.35170
C53         C  0.21243073  0.41715329  0.34362442     0.78630
C54         C  0.19999800  0.57278163  0.47302742     0.78690
C55         C  0.21397255  0.56361592  0.33475591     0.78560
C56         C  0.20462428  0.42985689  0.48182099     0.78520
O57         O  0.43780425  0.24845299  0.45422615    -0.70610
O58         O  0.54242316  0.26038805  0.35094785    -0.70830
O59         O  0.43965725  0.24617709  0.34903859    -0.70690
O60         O  0.54022690  0.26302610  0.45550248    -0.70690
O61         O  0.55372281  0.17957533  0.45867655    -0.70650
O62         O  0.45145806  0.16153817  0.34893640    -0.70670
O63         O  0.55556874  0.17652578  0.35076368    -0.70610
O64         O  0.44947837  0.16384679  0.45573469    -0.70800
V65         V  0.49025356  0.25262889  0.40242869     1.35240
V66         V  0.50235283  0.17171364  0.40345951     1.35170
C67         C  0.42664902  0.20459285  0.47360677     0.78630
C68         C  0.56654817  0.22100707  0.33205687     0.78690
C69         C  0.42886257  0.20148967  0.33017157     0.78560
C70         C  0.56364173  0.22531252  0.47684544     0.78520
O71         O  0.46416923  0.43377795  0.16659689    -0.70610
O72         O  0.55311125  0.55073818  0.15973769    -0.70830
O73         O  0.44978853  0.53829055  0.16736111    -0.70690
O74         O  0.56683584  0.44804045  0.15906198    -0.70690
O75         O  0.55673144  0.44124509  0.07426571    -0.70650
O76         O  0.44529657  0.54173857  0.08250638    -0.70670
O77         O  0.55095522  0.54611651  0.07427754    -0.70610
O78         O  0.45152210  0.43552403  0.08249424    -0.70800
V79         V  0.50811936  0.49264733  0.16142680     1.35240
V80         V  0.50124408  0.49110548  0.07976263     1.35170
C81         C  0.44095218  0.41558543  0.12647121     0.78630
C82         C  0.56866874  0.56712037  0.11604375     0.78690
C83         C  0.42802754  0.55694352  0.12696660     0.78560
C84         C  0.58163924  0.42927801  0.11544490     0.78520
C85         C  0.74078708  0.72669432  0.64106434    -0.01320
C86         C  0.77273636  0.76943659  0.68751784    -0.01320
C87         C  0.73322992  0.28699489  0.63572053    -0.01320
C88         C  0.77323083  0.24489848  0.67434203    -0.01320
C89         C  0.25729515  0.72769406  0.63309558    -0.01320
C90         C  0.22388551  0.77175683  0.67627037    -0.01320
C91         C  0.71714515  0.73390656  0.16619287    -0.01320
C92         C  0.76329755  0.77606278  0.13645442    -0.01320
C93         C  0.27228120  0.26361753  0.63257810    -0.01320
C94         C  0.22944938  0.22946008  0.67385246    -0.01320
C95         C  0.28276865  0.73478245  0.18887852    -0.01320
C96         C  0.23660248  0.76776244  0.14869028    -0.01320
C97         C  0.73787604  0.27058906  0.17520074    -0.01320
C98         C  0.76499279  0.22123151  0.13367029    -0.01320
C99         C  0.27458629  0.26020419  0.17566361    -0.01320
C100        C  0.23147459  0.22160866  0.13661702    -0.01320
O101        O  0.25212838  0.05962699  0.95532060    -0.70610
O102        O  0.23455739  0.94314690  0.86181941    -0.70830
O103        O  0.24258596  0.95558991  0.96629271    -0.70690
O104        O  0.24295788  0.04701469  0.85266219    -0.70690
O105        O  0.32720821  0.05145747  0.85583314    -0.70650
O106        O  0.32350224  0.93586015  0.95272215    -0.70670
O107        O  0.31819046  0.94478036  0.84735167    -0.70610
O108        O  0.33525845  0.04294162  0.95987259    -0.70800
V109        V  0.24456257  0.00104708  0.90912428     1.35240
V110        V  0.32499761  0.99357568  0.90399178     1.35170
C111        C  0.29683742  0.07137243  0.97317920     0.78630
C112        C  0.27377296  0.92592310  0.83675369     0.78690
C113        C  0.28095669  0.92639488  0.97663779     0.78560
C114        C  0.28415484  0.06961821  0.83865716     0.78520
O115        O  0.95415342  0.23667673  0.84716572    -0.70610
O116        O  0.05432362  0.23090358  0.95934047    -0.70830
O117        O  0.95041967  0.23115198  0.95182800    -0.70690
O118        O  0.05861270  0.23265597  0.85192804    -0.70690
O119        O  0.05477692  0.31794908  0.85104119    -0.70650
O120        O  0.95512350  0.31517341  0.96487227    -0.70670
O121        O  0.05976653  0.31594759  0.95809622    -0.70610
O122        O  0.94986744  0.32144632  0.85878677    -0.70800
V123        V  0.00456536  0.23445839  0.90271385     1.35240
V124        V  0.00504509  0.31616665  0.90792288     1.35170
C125        C  0.93415074  0.28058876  0.83517186     0.78630
C126        C  0.07359055  0.27318931  0.97829027     0.78690
C127        C  0.93561903  0.27123657  0.97749287     0.78560
C128        C  0.07333603  0.27505769  0.83212838     0.78520
O129        O  0.94150472  0.03339976  0.14011127    -0.70610
O130        O  0.04982548  0.93463356  0.15372515    -0.70830
O131        O  0.94535464  0.93041337  0.15549198    -0.70690
O132        O  0.04577754  0.03979203  0.14154450    -0.70690
O133        O  0.04829692  0.05020423  0.22594851    -0.70650
O134        O  0.94385567  0.94511376  0.23993483    -0.70670
O135        O  0.04989509  0.94426298  0.23872084    -0.70610
O136        O  0.94329726  0.04876355  0.22450412    -0.70800
V137        V  0.99587253  0.98469864  0.14947336     1.35240
V138        V  0.99640108  0.99672646  0.23077779     1.35170
C139        C  0.92401541  0.05788795  0.17957746     0.78630
C140        C  0.06856942  0.92228987  0.19765059     0.78690
C141        C  0.92608435  0.92082968  0.20012823     0.78560
C142        C  0.06414461  0.06442617  0.18135903     0.78520
O143        O  0.66870732  0.05755221  0.95780857    -0.70610
O144        O  0.65821608  0.95889732  0.84500869    -0.70830
O145        O  0.66623055  0.95206180  0.95229241    -0.70690
O146        O  0.66651595  0.06719952  0.85178456    -0.70690
O147        O  0.74708120  0.04649088  0.83742216    -0.70650
O148        O  0.74915663  0.96408957  0.95603497    -0.70670
O149        O  0.74124956  0.94381466  0.85298051    -0.70610
O150        O  0.75160603  0.06569157  0.94219534    -0.70800
V151        V  0.66553429  0.00883534  0.90122358     1.35240
V152        V  0.74582476  0.00502510  0.89696772     1.35170
C153        C  0.71163714  0.07908220  0.96876415     0.78630
C154        C  0.69774372  0.93181816  0.83222708     0.78690
C155        C  0.71019148  0.94092195  0.97364425     0.78560
C156        C  0.70964623  0.07696044  0.82847883     0.78520
O157        O  0.93517210  0.05325960  0.58073935    -0.70610
O158        O  0.04920313  0.95592501  0.58951474    -0.70830
O159        O  0.94464629  0.94741788  0.59363651    -0.70690
O160        O  0.04134685  0.06037823  0.57856467    -0.70690
O161        O  0.03905963  0.07260125  0.66335214    -0.70650
O162        O  0.94966981  0.95820290  0.67831391    -0.70670
O163        O  0.05205101  0.96863344  0.67411747    -0.70610
O164        O  0.93442122  0.06169004  0.66578138    -0.70800
V165        V  0.99233132  0.00468525  0.58704313     1.35240
V166        V  0.99371100  0.01537841  0.66853136     1.35170
C167        C  0.91482010  0.07370538  0.62169965     0.78630
C168        C  0.06968365  0.94526456  0.63337156     0.78690
C169        C  0.93214547  0.93287178  0.63937707     0.78560
C170        C  0.05844217  0.08362059  0.61951543     0.78520
O171        O  0.95708433  0.67580013  0.86553523    -0.70610
O172        O  0.05869417  0.67049470  0.97560370    -0.70830
O173        O  0.95287070  0.67437465  0.97056060    -0.70690
O174        O  0.06365881  0.67262900  0.86981590    -0.70690
O175        O  0.06162626  0.75771304  0.87151407    -0.70650
O176        O  0.95868418  0.75953907  0.97638359    -0.70670
O177        O  0.06360633  0.75577565  0.97612430    -0.70610
O178        O  0.95788090  0.76083702  0.87181596    -0.70800
V179        V  0.00823256  0.67476136  0.92045836     1.35240
V180        V  0.01047638  0.75665616  0.92387799     1.35170
C181        C  0.93842190  0.71957017  0.85154590     0.78630
C182        C  0.07904537  0.71229119  0.99378754     0.78690
C183        C  0.93682847  0.71767796  0.98995145     0.78560
C184        C  0.08168900  0.71574788  0.85365706     0.78520
C185        C  0.18715732  0.25693931  0.10639697    -0.04170
C186        C  0.19669325  0.29191234  0.06279068    -0.01280
C187        C  0.15783839  0.30048189  0.02331539     0.03700
C188        C  0.11038318  0.27321329  0.02416356    -0.04170
C189        C  0.09560610  0.25168078  0.07214632    -0.01270
C190        C  0.13172846  0.24873387  0.11428221     0.03700
C191        C  0.23672183  0.33140819  0.06336169     0.38350
C192        C  0.04079584  0.24245352  0.08221186     0.38340
C193        C  0.10778403  0.25646672  0.16550196     0.36770
C194        C  0.16400217  0.34206362  0.98522086     0.36770
N195        N  0.08524385  0.26504656  0.20418022    -0.38050
N196        N  0.16863916  0.37595312  0.95582818    -0.38050
N197        N  0.99770583  0.23752158  0.09436652    -0.37500
N198        N  0.26311925  0.36793953  0.05906068    -0.37500
C199        C  0.30234478  0.11781258  0.00841791    -0.04170
C200        C  0.27257251  0.16121925  0.99730532    -0.01280
C201        C  0.24406009  0.18569689  0.03734652     0.03700
C202        C  0.26319348  0.18761994  0.09115852    -0.04170
C203        C  0.30458768  0.14798460  0.09998866    -0.01270
C204        C  0.32296856  0.11391678  0.05851110     0.03700
C205        C  0.27203732  0.18078944  0.94435262     0.38350
C206        C  0.32097270  0.12771678  0.15010947     0.38340
C207        C  0.36020866  0.07144792  0.06773555     0.36770
C208        C  0.18970926  0.17953213  0.02404722     0.36770
N209        N  0.38957800  0.03765111  0.07509884    -0.38050
N210        N  0.14841999  0.16959263  0.00842210    -0.38050
N211        N  0.33889837  0.10502568  0.18496042    -0.37500
N212        N  0.27636267  0.19791671  0.90281867    -0.37500
C213        C  0.10517470  0.10705224  0.17576963    -0.04170
C214        C  0.12274711  0.13984827  0.21820384    -0.01280
C215        C  0.16489365  0.17675213  0.21100208     0.03700
C216        C  0.19734143  0.17444060  0.16406321    -0.04170
C217        C  0.18357889  0.12974372  0.13130213    -0.01270
C218        C  0.13215161  0.11218646  0.12828585     0.03700
C219        C  0.09582286  0.13840492  0.26831054     0.38350
C220        C  0.21797511  0.08453494  0.12979676     0.38340
C221        C  0.11527362  0.08620867  0.08003749     0.36770
C222        C  0.17379628  0.21308397  0.25454013     0.36770
N223        N  0.10186621  0.06559025  0.04140352    -0.38050
N224        N  0.17747750  0.23804336  0.29285735    -0.38050
N225        N  0.24319765  0.04664062  0.12910059    -0.37500
N226        N  0.07450154  0.13758552  0.30836754    -0.37500
C227        C  0.72033909  0.19546729  0.09515510    -0.04170
C228        C  0.69554182  0.14613325  0.10327380    -0.01280
C229        C  0.69493408  0.10701534  0.06260889     0.03700
C230        C  0.71379616  0.11869391  0.01199060    -0.04170
C231        C  0.72662795  0.17080769  0.00140269    -0.01270
C232        C  0.71742742  0.20927427  0.04054672     0.03700
C233        C  0.66026507  0.13825354  0.14668436     0.38350
C234        C  0.73672587  0.18667221  0.94788684     0.38340
C235        C  0.67607837  0.24384392  0.02343057     0.36770
C236        C  0.67533015  0.05479703  0.07317528     0.36770
N237        N  0.64282702  0.26926812  0.00613756    -0.38050
N238        N  0.65973621  0.01320790  0.08175118    -0.38050
N239        N  0.74373345  0.19954388  0.90511109    -0.37500
N240        N  0.63031042  0.12813330  0.17899280    -0.37500
C241        C  0.80870045  0.23981584  0.09053500    -0.04170
C242        C  0.81082457  0.28779927  0.06064513    -0.01280
C243        C  0.85600450  0.30128414  0.03056607     0.03700
C244        C  0.89555165  0.26401603  0.02010700    -0.04170
C245        C  0.88984003  0.21392561  0.04195339    -0.01270
C246        C  0.84386031  0.20081761  0.06838464     0.03700
C247        C  0.76492093  0.31541695  0.04330418     0.38350
C248        C  0.92885035  0.17257181  0.03339782     0.38340
C249        C  0.82804239  0.14729523  0.05717227     0.36770
C250        C  0.85980832  0.35301523  0.00750966     0.36770
N251        N  0.82021533  0.10445487  0.04340181    -0.38050
N252        N  0.86275423  0.39432236  0.98943704    -0.38050
N253        N  0.95935016  0.13936723  0.02695177    -0.37500
N254        N  0.73207203  0.34037332  0.02453673    -0.37500
C255        C  0.88286333  0.09772677  0.17293385    -0.04170
C256        C  0.83361578  0.08373716  0.15496623    -0.01280
C257        C  0.79137765  0.11933935  0.16026733     0.03700
C258        C  0.79939708  0.17631510  0.16613603    -0.04170
C259        C  0.85199480  0.18767148  0.18613386    -0.01270
C260        C  0.89222883  0.14917687  0.18822956     0.03700
C261        C  0.82525674  0.03117344  0.13284789     0.38350
C262        C  0.86928095  0.23539570  0.21086047     0.38340
C263        C  0.94579276  0.16316675  0.20295621     0.36770
C264        C  0.74905719  0.09080327  0.18402888     0.36770
N265        N  0.98804902  0.17469024  0.21426126    -0.38050
N266        N  0.71938051  0.06366083  0.20447525    -0.38050
N267        N  0.89240588  0.26646291  0.23525091    -0.37500
N268        N  0.81884141  0.98995147  0.11406366    -0.37500
C269        C  0.20054258  0.72376677  0.11542052    -0.04170
C270        C  0.14702204  0.70862865  0.12748390    -0.01280
C271        C  0.10906082  0.69970994  0.08682133     0.03700
C272        C  0.12060109  0.71085693  0.03455013    -0.04170
C273        C  0.17287911  0.71678837  0.02094995    -0.01270
C274        C  0.21179137  0.71222043  0.06014628     0.03700
C275        C  0.13158247  0.68541502  0.17608825     0.38350
C276        C  0.18761488  0.71630411  0.96577453     0.38340
C277        C  0.24905651  0.67277535  0.04371258     0.36770
C278        C  0.05921928  0.67475704  0.09766078     0.36770
N279        N  0.27513342  0.63996089  0.02536457    -0.38050
N280        N  0.02041738  0.65342554  0.10627101    -0.38050
N281        N  0.20075028  0.71384088  0.92232393    -0.37500
N282        N  0.11330992  0.66231166  0.21025261    -0.37500
C283        C  0.25495362  0.80612608  0.10019645    -0.04170
C284        C  0.30470332  0.83191402  0.09196166    -0.01280
C285        C  0.31462705  0.86353639  0.04690914     0.03700
C286        C  0.27359362  0.88242677  0.01561660    -0.04170
C287        C  0.22298029  0.86365646  0.02604023    -0.01270
C288        C  0.21367758  0.82690617  0.06610471     0.03700
C289        C  0.34212131  0.84181532  0.13304070     0.38350
C290        C  0.17795941  0.88513084  0.99819999     0.38340
C291        C  0.15814357  0.81957463  0.07733004     0.36770
C292        C  0.36738939  0.88166682  0.03655438     0.36770
N293        N  0.11369383  0.81792277  0.08545779    -0.38050
N294        N  0.40943379  0.89597000  0.02860705    -0.38050
N295        N  0.14153076  0.90307675  0.97816885    -0.37500
N296        N  0.37264938  0.85996936  0.16168007    -0.37500
C297        C  0.20008037  0.81112141  0.18253879    -0.04170
C298        C  0.15693997  0.80178226  0.21873703    -0.01280
C299        C  0.11697005  0.84078577  0.22847292     0.03700
C300        C  0.11440701  0.88616630  0.19837516    -0.04170
C301        C  0.15767902  0.89847650  0.16840207    -0.01270
C302        C  0.20268576  0.86740472  0.17106027     0.03700
C303        C  0.15426041  0.75948311  0.25511438     0.38350
C304        C  0.15685978  0.94324474  0.13377320     0.38340
C305        C  0.24976169  0.89868025  0.16830443     0.36770
C306        C  0.07942857  0.83557945  0.27089126     0.36770
N307        N  0.28306238  0.92933383  0.16820658    -0.38050
N308        N  0.05038954  0.83190602  0.30543532    -0.38050
N309        N  0.15584551  0.97726552  0.10431963    -0.37500
N310        N  0.14426296  0.72999657  0.28779044    -0.37500
C311        C  0.19113955  0.18878595  0.64035409    -0.04170
C312        C  0.14693992  0.20204483  0.60646181    -0.01280
C313        C  0.10825151  0.16401033  0.59233827     0.03700
C314        C  0.10525226  0.11708588  0.61938630    -0.04170
C315        C  0.14832509  0.10134904  0.64850372    -0.01270
C316        C  0.19330914  0.13214985  0.64928237     0.03700
C317        C  0.13531144  0.25251719  0.58484472     0.38350
C318        C  0.14806093  0.05232523  0.67730296     0.38340
C319        C  0.23995383  0.09993313  0.64841840     0.36770
C320        C  0.07153089  0.17324050  0.54991546     0.36770
N321        N  0.27285347  0.06906121  0.64253046    -0.38050
N322        N  0.04463270  0.18136698  0.51440652    -0.38050
N323        N  0.14902679  0.01435571  0.70164180    -0.37500
N324        N  0.11854370  0.28926845  0.56440295    -0.37500
C325        C  0.27891810  0.11642683  0.80365565    -0.04170
C326        C  0.31576364  0.12860835  0.76530602    -0.01280
C327        C  0.30247705  0.16183934  0.72213892     0.03700
C328        C  0.25254876  0.19011174  0.71948320    -0.04170
C329        C  0.21605664  0.17204575  0.75901829    -0.01270
C330        C  0.23127295  0.14356889  0.80318473     0.03700
C331        C  0.36703290  0.10378719  0.76837102     0.38350
C332        C  0.16024342  0.16817854  0.75030066     0.38340
C333        C  0.19444498  0.13888250  0.84675447     0.36770
C334        C  0.33594757  0.15096207  0.67802088     0.36770
N335        N  0.16486201  0.13548174  0.88086684    -0.38050
N336        N  0.36446233  0.13308552  0.64709320    -0.38050
N337        N  0.11637628  0.15792537  0.74685722    -0.37500
N338        N  0.40785613  0.08425086  0.77060624    -0.37500
C339        C  0.11353344  0.27417921  0.78967954    -0.04170
C340        C  0.10068535  0.26865658  0.73615324    -0.01280
C341        C  0.13837872  0.27875244  0.69733646     0.03700
C342        C  0.19313821  0.27226004  0.70803904    -0.04170
C343        C  0.20418393  0.28609037  0.76269647    -0.01270
C344        C  0.16613032  0.28045092  0.80241175     0.03700
C345        C  0.05171733  0.24560229  0.71970194     0.38350
C346        C  0.23920315  0.32781711  0.77790636     0.38340
C347        C  0.18234426  0.27856524  0.85683383     0.36770
C348        C  0.12209696  0.32578679  0.67080055     0.36770
N349        N  0.19609190  0.27522287  0.89988259    -0.38050
N350        N  0.10685220  0.36371774  0.65131417    -0.38050
N351        N  0.26423787  0.36199138  0.79484537    -0.37500
N352        N  0.01437348  0.22383368  0.70600944    -0.37500
C353        C  0.89254801  0.72049352  0.02692498    -0.04170
C354        C  0.84149126  0.71527025  0.00920996    -0.01280
C355        C  0.80024322  0.73641975  0.04069311     0.03700
C356        C  0.80501604  0.74211566  0.09836532    -0.04170
C357        C  0.85851220  0.73073362  0.11431142    -0.01270
C358        C  0.90011182  0.73569236  0.07885349     0.03700
C359        C  0.83241448  0.69583263  0.95576858     0.38350
C360        C  0.87225595  0.69103431  0.15172224     0.38340
C361        C  0.95108579  0.75327023  0.09607183     0.36770
C362        C  0.75893839  0.75693439  0.00794253     0.36770
N363        N  0.99192680  0.76977830  0.10635747    -0.38050
N364        N  0.73014986  0.77112168  0.97604472    -0.38050
N365        N  0.88751261  0.65832655  0.17900551    -0.37500
N366        N  0.82479518  0.67969995  0.91363843    -0.37500
C367        C  0.72022174  0.90170874  0.01713175    -0.04170
C368        C  0.68038566  0.87429016  0.04261614    -0.01280
C369        C  0.69238993  0.82925207  0.07341555     0.03700
C370        C  0.74386379  0.82093609  0.09572071    -0.04170
C371        C  0.78351805  0.85400087  0.07250478    -0.01270
C372        C  0.77240790  0.88916572  0.03147845     0.03700
C373        C  0.62625041  0.88750404  0.03161352     0.38350
C374        C  0.83876437  0.84990456  0.08503715     0.38340
C375        C  0.81694413  0.91023929  0.00278746     0.36770
C376        C  0.65806971  0.78671662  0.05954524     0.36770
N377        N  0.85269722  0.92624206  0.98043522    -0.38050
N378        N  0.63022986  0.75682291  0.03921421    -0.38050
N379        N  0.88364223  0.85091878  0.08987115    -0.37500
N380        N  0.58302913  0.89788811  0.02319297    -0.37500
C381        C  0.79723952  0.81054750  0.18201225    -0.04170
C382        C  0.84864654  0.79467087  0.20186384    -0.01280
C383        C  0.89154590  0.82934242  0.20182043     0.03700
C384        C  0.88259408  0.88290252  0.20494155    -0.04170
C385        C  0.83115915  0.89984727  0.21104954    -0.01270
C386        C  0.78945788  0.86701480  0.19305684     0.03700
C387        C  0.85805709  0.75437820  0.24020897     0.38350
C388        C  0.82181654  0.95232597  0.23276072     0.38340
C389        C  0.74558809  0.89843924  0.17693249     0.36770
C390        C  0.94437089  0.80985170  0.20921073     0.36770
N391        N  0.71705056  0.93106422  0.16370004    -0.38050
N392        N  0.98575711  0.79292924  0.21588688    -0.38050
N393        N  0.81461774  0.99363853  0.25115646    -0.37500
N394        N  0.87117772  0.72518109  0.27218986    -0.37500
C395        C  0.12420498  0.71988273  0.81369308    -0.04170
C396        C  0.15176962  0.76693720  0.81203659    -0.01280
C397        C  0.17166335  0.78426103  0.76458063     0.03700
C398        C  0.18671842  0.74826874  0.72253000    -0.04170
C399        C  0.15827692  0.69867741  0.72506015    -0.01270
C400        C  0.12891168  0.68480437  0.77081871     0.03700
C401        C  0.15537177  0.80129912  0.85803075     0.38350
C402        C  0.14380720  0.66701785  0.68015476     0.38340
C403        C  0.10106773  0.63506871  0.77261534     0.36770
C404        C  0.16568578  0.84064227  0.75813826     0.36770
N405        N  0.07906598  0.59546892  0.77373539    -0.38050
N406        N  0.15675863  0.88521680  0.75585975    -0.38050
N407        N  0.12290748  0.64083528  0.64891446    -0.37500
N408        N  0.15866753  0.82894041  0.89434500    -0.37500
C409        C  0.26748300  0.80718941  0.71045885    -0.04170
C410        C  0.28228806  0.79502876  0.76449016    -0.01280
C411        C  0.27711655  0.83264798  0.80607069     0.03700
C412        C  0.26868705  0.88536740  0.79483621    -0.04170
C413        C  0.26724284  0.90027314  0.74227268    -0.01270
C414        C  0.27465820  0.86247226  0.70152071     0.03700
C415        C  0.32161605  0.75688597  0.77759124     0.38350
C416        C  0.26522864  0.95581360  0.73089230     0.38340
C417        C  0.31713600  0.87934798  0.66881410     0.36770
C418        C  0.28492164  0.81771415  0.86063313     0.36770
N419        N  0.35126508  0.89751636  0.64567717    -0.38050
N420        N  0.29131927  0.80584042  0.90389978    -0.38050
N421        N  0.26415956  0.00061571  0.72460123    -0.37500
N422        N  0.35414504  0.72975770  0.79378590    -0.37500
C423        C  0.10897701  0.90170500  0.63778042    -0.04170
C424        C  0.09354258  0.85540649  0.66103165    -0.01280
C425        C  0.12517443  0.80990191  0.65741924     0.03700
C426        C  0.18152646  0.81186746  0.64666957    -0.04170
C427        C  0.19426712  0.85934292  0.61813853    -0.01270
C428        C  0.15806995  0.90251428  0.61342869     0.03700
C429        C  0.04339093  0.85350184  0.68814036     0.38350
C430        C  0.24137382  0.86595199  0.58832615     0.38340
C431        C  0.17185887  0.94926019  0.58451064     0.36770
C432        C  0.09333167  0.76318398  0.65627625     0.36770
N433        N  0.18274384  0.98644115  0.56143565    -0.38050
N434        N  0.06071823  0.73182850  0.65366189    -0.38050
N435        N  0.27637672  0.87762540  0.56226661    -0.37500
N436        N  0.00416709  0.85131107  0.71048211    -0.37500
C437        C  0.75145141  0.21003548  0.72519190    -0.04170
C438        C  0.78919434  0.17810428  0.75424904    -0.01280
C439        C  0.77375737  0.14240392  0.79305472     0.03700
C440        C  0.72160974  0.12439848  0.79530953    -0.04170
C441        C  0.68435982  0.15366977  0.76750790    -0.01270
C442        C  0.69904147  0.20256345  0.74496738     0.03700
C443        C  0.84475365  0.17527722  0.74211249     0.38350
C444        C  0.62971021  0.13955557  0.77050700     0.38340
C445        C  0.67407748  0.24297859  0.77670261     0.36770
C446        C  0.81296031  0.12445216  0.83051378     0.36770
N447        N  0.65013638  0.27055671  0.80430822    -0.38050
N448        N  0.84435463  0.11066996  0.86010836    -0.38050
N449        N  0.58604883  0.12833678  0.77288147    -0.37500
N450        N  0.88889738  0.16929803  0.73405721    -0.37500
C451        C  0.81754163  0.27834466  0.70837967    -0.04170
C452        C  0.87443958  0.27821909  0.70028636    -0.01280
C453        C  0.90919588  0.29192209  0.74181025     0.03700
C454        C  0.89426254  0.28474740  0.79328374    -0.04170
C455        C  0.84151861  0.28946301  0.80434190    -0.01270
C456        C  0.80527575  0.29562729  0.76247891     0.03700
C457        C  0.90330372  0.26870417  0.65253829     0.38350
C458        C  0.82521319  0.29259924  0.85905222     0.38340
C459        C  0.75769501  0.32099841  0.77894082     0.36770
C460        C  0.95682862  0.32126422  0.73247705     0.36770
N461        N  0.72438939  0.34546859  0.79819066    -0.38050
N462        N  0.99324199  0.34695788  0.72538312    -0.38050
N463        N  0.81244943  0.29550123  0.90261327    -0.37500
N464        N  0.93352910  0.26400503  0.61890642    -0.37500
C465        C  0.79811913  0.19773738  0.63783176    -0.04170
C466        C  0.78427703  0.14358569  0.64664963    -0.01280
C467        C  0.82244395  0.10358075  0.64380895     0.03700
C468        C  0.87013702  0.11228543  0.61861367    -0.04170
C469        C  0.87306320  0.15805356  0.58854165    -0.01270
C470        C  0.83740044  0.20087242  0.59758178     0.03700
C471        C  0.73030396  0.12732350  0.65422808     0.38350
C472        C  0.91026690  0.15960788  0.54583724     0.38340
C473        C  0.84232258  0.24430361  0.56217106     0.36770
C474        C  0.80955327  0.05343807  0.66498282     0.36770
N475        N  0.85378778  0.27590279  0.53210717    -0.38050
N476        N  0.79296414  0.01588266  0.68307001    -0.38050
N477        N  0.93794937  0.16036249  0.51004019    -0.37500
N478        N  0.68779008  0.11248183  0.65748679    -0.37500
C479        C  0.81383440  0.74748577  0.73256137    -0.04170
C480        C  0.82739866  0.78172097  0.77725907    -0.01280
C481        C  0.85912567  0.76601904  0.81955735     0.03700
C482        C  0.89357482  0.72416847  0.81363529    -0.04170
C483        C  0.88689457  0.69074334  0.77000492    -0.01270
C484        C  0.84745127  0.70080907  0.73082484     0.03700
C485        C  0.81310562  0.83609316  0.78305184     0.38350
C486        C  0.92221175  0.64578693  0.76494162     0.38340
C487        C  0.84992920  0.66257743  0.68893544     0.36770
C488        C  0.85708173  0.79471845  0.86989808     0.36770
N489        N  0.86465388  0.62968669  0.66046124    -0.38050
N490        N  0.85519684  0.81750679  0.90964388    -0.38050
N491        N  0.95005474  0.61000974  0.76078817    -0.37500
N492        N  0.80454736  0.87901435  0.79554741    -0.37500
C493        C  0.72621824  0.80334416  0.72069105    -0.04170
C494        C  0.70374719  0.85364446  0.70397104    -0.01280
C495        C  0.69579803  0.89624186  0.73998588     0.03700
C496        C  0.69402730  0.88735060  0.79342475    -0.04170
C497        C  0.69312420  0.83546901  0.80966482    -0.01270
C498        C  0.71124120  0.79384279  0.77553921     0.03700
C499        C  0.68022659  0.86420714  0.65346118     0.38350
C500        C  0.67549106  0.82619636  0.86301145     0.38340
C501        C  0.72013188  0.74623391  0.80394793     0.36770
C502        C  0.68570877  0.94940091  0.72208330     0.36770
N503        N  0.72516014  0.71393106  0.83509440    -0.38050
N504        N  0.67708077  0.99163269  0.70818609    -0.38050
N505        N  0.65985042  0.81990338  0.90504613    -0.37500
N506        N  0.65873414  0.87807353  0.61597987    -0.37500
C507        C  0.81297885  0.81182432  0.66051228    -0.04170
C508        C  0.86449338  0.79927067  0.63792463    -0.01280
C509        C  0.89985732  0.84010612  0.62344091     0.03700
C510        C  0.89584409  0.88896960  0.64870081    -0.04170
C511        C  0.85592453  0.89485467  0.68524994    -0.01270
C512        C  0.80982181  0.86751177  0.67359836     0.03700
C513        C  0.88723907  0.74804094  0.62962855     0.38350
C514        C  0.85714992  0.93722725  0.72405567     0.38340
C515        C  0.78075742  0.90265364  0.64038729     0.36770
C516        C  0.94454718  0.82996685  0.58938342     0.36770
N517        N  0.76032102  0.93404833  0.61495496    -0.38050
N518        N  0.98010770  0.82192468  0.56236563    -0.38050
N519        N  0.86030771  0.97002027  0.75608005    -0.37500
N520        N  0.91290634  0.71247108  0.61691672    -0.37500
C521        C  0.62560579  0.39173870  0.11425652    -0.04170
C522        C  0.67502612  0.40684121  0.13115527    -0.01280
C523        C  0.71556703  0.36928016  0.13669663     0.03700
C524        C  0.70443206  0.31289434  0.14005000    -0.04170
C525        C  0.65130487  0.30040805  0.12225452    -0.01270
C526        C  0.61572917  0.33912812  0.10447623     0.03700
C527        C  0.68389464  0.46177688  0.14513714     0.38350
C528        C  0.62470969  0.25114677  0.12945841     0.38340
C529        C  0.56422475  0.32461994  0.08424456     0.36770
C530        C  0.76540273  0.39270981  0.12517699     0.36770
N531        N  0.52352258  0.31203089  0.06901309    -0.38050
N532        N  0.80145564  0.41660378  0.11228013    -0.38050
N533        N  0.59355629  0.21865365  0.13272486    -0.37500
N534        N  0.69021993  0.50513828  0.15783019    -0.37500
C535        C  0.60339851  0.61310957  0.11509967    -0.04170
C536        C  0.58488497  0.66069827  0.13482731    -0.01280
C537        C  0.61750199  0.70521522  0.13653478     0.03700
C538        C  0.67445012  0.70100458  0.12817845    -0.04170
C539        C  0.68554144  0.65620628  0.09415971    -0.01270
C540        C  0.65245963  0.61133214  0.09184898     0.03700
C541        C  0.53140256  0.66300191  0.15408044     0.38350
C542        C  0.71506202  0.65957318  0.04648402     0.38340
C543        C  0.66627872  0.56501894  0.06017706     0.36770
C544        C  0.58838138  0.75381763  0.14394316     0.36770
N545        N  0.67685099  0.52863095  0.03432532    -0.38050
N546        N  0.55947488  0.78879987  0.14767330    -0.38050
N547        N  0.73403223  0.65171019  0.00579412    -0.37500
N548        N  0.48903634  0.66183972  0.16956474    -0.37500
C549        C  0.38552139  0.59779961  0.13393258    -0.04170
C550        C  0.36263147  0.60328283  0.18332478    -0.01280
C551        C  0.34412353  0.65207265  0.20032410     0.03700
C552        C  0.32157203  0.68944633  0.16390136    -0.04170
C553        C  0.34222964  0.68239365  0.11120045    -0.01270
C554        C  0.37528311  0.63800416  0.09756252     0.03700
C555        C  0.35798751  0.55955981  0.21869191     0.38350
C556        C  0.34083020  0.72276885  0.07196085     0.38340
C557        C  0.40040516  0.63488833  0.04642358     0.36770
C558        C  0.35339825  0.66291042  0.25596808     0.36770
N559        N  0.42036081  0.63266885  0.00564549    -0.38050
N560        N  0.36339514  0.66955886  0.30001285    -0.38050
N561        N  0.34405597  0.74847290  0.03500665    -0.37500
N562        N  0.35151152  0.52671870  0.24871211    -0.37500
C563        C  0.39917367  0.37521312  0.13255061    -0.04170
C564        C  0.38365368  0.34037989  0.09185747    -0.01280
C565        C  0.34224898  0.30331649  0.10027161     0.03700
C566        C  0.30920061  0.30644370  0.14676699    -0.04170
C567        C  0.31853159  0.35535265  0.17472142    -0.01270
C568        C  0.36843670  0.37651388  0.17778973     0.03700
C569        C  0.41044758  0.34204071  0.04151524     0.38350
C570        C  0.27971486  0.39675777  0.17717096     0.38340
C571        C  0.38243033  0.40722778  0.22425423     0.36770
C572        C  0.33353915  0.26896375  0.05590983     0.36770
N573        N  0.39505900  0.42883072  0.26259174    -0.38050
N574        N  0.33496965  0.24780222  0.01545738    -0.38050
N575        N  0.25183097  0.43269215  0.17897806    -0.37500
N576        N  0.43098762  0.34337932  0.00106353    -0.37500
C577        C  0.39156787  0.20357368  0.51981035    -0.04170
C578        C  0.40576147  0.23185558  0.56468131    -0.01280
C579        C  0.37130946  0.23590806  0.60710765     0.03700
C580        C  0.31527605  0.22680404  0.60035181    -0.04170
C581        C  0.30657018  0.18617038  0.56032853    -0.01270
C582        C  0.34574615  0.17398269  0.52172211     0.03700
C583        C  0.45841872  0.25164552  0.57094864     0.38350
C584        C  0.26005458  0.15485503  0.55468852     0.38340
C585        C  0.34029086  0.12959267  0.48547836     0.36770
C586        C  0.39771507  0.24030856  0.65777462     0.36050
N587        N  0.33640495  0.09341849  0.45752970    -0.38050
N588        N  0.42249497  0.24050565  0.69589697    -0.38050
N589        N  0.22535030  0.12844519  0.54179623    -0.37500
N590        N  0.49965305  0.26720808  0.58051629    -0.37500
C591        C  0.60211549  0.23682299  0.52121240    -0.04170
C592        C  0.60852281  0.28889370  0.53996976    -0.01280
C593        C  0.64865442  0.30227146  0.57578777     0.03700
C594        C  0.68713939  0.26396668  0.59560540    -0.04170
C595        C  0.68065692  0.21197317  0.57211806    -0.01270
C596        C  0.63497301  0.19804393  0.54264621     0.03700
C597        C  0.57278120  0.33065662  0.52362948     0.38350
C598        C  0.72386811  0.17904442  0.55607536     0.38340
C599        C  0.62512191  0.14296921  0.53021317     0.36770
C600        C  0.65220866  0.35898688  0.58641333     0.36770
N601        N  0.61752886  0.09902198  0.52063502    -0.38050
N602        N  0.65329831  0.40434255  0.59103997    -0.38050
N603        N  0.75403002  0.15053341  0.53693931    -0.37500
N604        N  0.54475066  0.36417408  0.51146922    -0.37500
C605        C  0.60729184  0.22868583  0.28990681    -0.04170
C606        C  0.64760740  0.19192127  0.27980461    -0.01280
C607        C  0.69117187  0.20454377  0.24710531     0.03700
C608        C  0.69272184  0.25217808  0.21709851    -0.04170
C609        C  0.65540392  0.29103917  0.23706995    -0.01270
C610        C  0.61021728  0.27718085  0.26460924     0.03700
C611        C  0.64586731  0.14100101  0.30484767     0.38350
C612        C  0.66541453  0.34721734  0.23862153     0.38340
C613        C  0.56731290  0.31502326  0.26753265     0.36770
C614        C  0.73726476  0.17474456  0.25927314     0.36770
N615        N  0.53361509  0.34546150  0.26953336    -0.38050
N616        N  0.77128093  0.14939969  0.27529780    -0.38050
N617        N  0.67095597  0.39209444  0.24441314    -0.37500
N618        N  0.64457005  0.10022167  0.32426438    -0.37500
C619        C  0.39183459  0.19794151  0.28561575    -0.04170
C620        C  0.33856319  0.19137077  0.29426115    -0.01280
C621        C  0.30277288  0.19447420  0.25241090     0.03700
C622        C  0.31617545  0.22134927  0.20447169    -0.04170
C623        C  0.37218713  0.22086468  0.19440622    -0.01270
C624        C  0.40873884  0.20910925  0.23474024     0.03700
C625        C  0.31899383  0.18377250  0.34676286     0.38350
C626        C  0.39436583  0.21730414  0.14222852     0.38340
C627        C  0.46448530  0.21106794  0.22448456     0.36770
C628        C  0.26674799  0.15114501  0.25386249     0.36770
N629        N  0.50868068  0.21237991  0.21551829    -0.38050
N630        N  0.24255273  0.11312232  0.25847720    -0.38050
N631        N  0.41657272  0.21099190  0.10297277    -0.37500
N632        N  0.30166343  0.17902109  0.38822720    -0.37500
C633        C  0.19640335  0.61260467  0.51613655    -0.04170
C634        C  0.18391576  0.66570227  0.51041651    -0.01280
C635        C  0.18813544  0.70065686  0.55487744     0.03700
C636        C  0.21970429  0.68669933  0.59961513    -0.04170
C637        C  0.22035092  0.62902265  0.60617183    -0.01270
C638        C  0.20070509  0.59507998  0.56668054     0.03700
C639        C  0.16121027  0.68273879  0.46127797     0.38350
C640        C  0.23257235  0.60081166  0.65384279     0.38340
C641        C  0.17148738  0.54812624  0.57955065     0.36770
C642        C  0.15230974  0.74452830  0.55486958     0.36770
N643        N  0.14591876  0.51231766  0.58972879    -0.38050
N644        N  0.12222830  0.77780516  0.54776239    -0.38050
N645        N  0.23947206  0.57351117  0.68919261    -0.37500
N646        N  0.14294468  0.69638032  0.42212687    -0.37500
C647        C  0.23709701  0.30183647  0.59309299    -0.04170
C648        C  0.22626580  0.29439781  0.53639628    -0.01280
C649        C  0.20388215  0.33517001  0.50498123     0.03700
C650        C  0.20635189  0.38736862  0.52149370    -0.04170
C651        C  0.22255262  0.39730669  0.57277376    -0.01270
C652        C  0.22542339  0.35620316  0.60956749     0.03700
C653        C  0.23305609  0.24762830  0.50513092     0.38350
C654        C  0.24425198  0.44837907  0.58647469     0.38340
C655        C  0.22461870  0.37628357  0.66305305     0.36770
C656        C  0.18083083  0.32405217  0.45338872     0.36770
N657        N  0.22150067  0.40093401  0.70151224    -0.38050
N658        N  0.16195265  0.31488725  0.41289052    -0.38050
N659        N  0.26424857  0.48756257  0.59814547    -0.37500
N660        N  0.23435241  0.21602825  0.47181658    -0.37500
C661        C  0.22049619  0.60938775  0.29917625    -0.04170
C662        C  0.24297358  0.65554902  0.31867195    -0.01280
C663        C  0.25092357  0.69996840  0.28646128     0.03700
C664        C  0.24976658  0.69611935  0.22904759    -0.04170
C665        C  0.22997387  0.64436266  0.21095998    -0.01270
C666        C  0.21080147  0.60540966  0.24574847     0.03700
C667        C  0.25793472  0.65736821  0.37369293     0.38350
C668        C  0.23410678  0.62346891  0.15790244     0.38340
C669        C  0.18559241  0.55769545  0.22601630     0.36770
C670        C  0.24973627  0.74772433  0.31761502     0.36770
N671        N  0.16538084  0.51994349  0.21036134    -0.38050
N672        N  0.24339367  0.78088932  0.34879613    -0.38050
N673        N  0.23591714  0.59836814  0.11964004    -0.37500
N674        N  0.27051820  0.65760415  0.41726853    -0.37500
C675        C  0.24776379  0.29457964  0.22441428    -0.04170
C676        C  0.27772621  0.30569865  0.27248077    -0.01280
C677        C  0.25746754  0.33413184  0.31573329     0.03700
C678        C  0.21621849  0.36884992  0.30874744    -0.04170
C679        C  0.18471216  0.36153077  0.26415524    -0.01270
C680        C  0.20134818  0.32819774  0.22119599     0.03700
C681        C  0.33426779  0.30590540  0.27464313     0.38350
C682        C  0.13670716  0.39221279  0.26040027     0.38340
C683        C  0.17792194  0.34490611  0.17267608     0.36770
C684        C  0.28356434  0.33205719  0.36661444     0.36770
N685        N  0.15580209  0.36540079  0.13886413    -0.38050
N686        N  0.30464435  0.33006898  0.40679488    -0.38050
N687        N  0.09846394  0.41637351  0.25721602    -0.37500
N688        N  0.37886209  0.31053637  0.28024392    -0.37500
C689        C  0.69866237  0.76356065  0.60958163    -0.04170
C690        C  0.70735556  0.78444144  0.55825168    -0.01280
C691        C  0.66709624  0.78561319  0.51992682     0.03700
C692        C  0.61512664  0.77601157  0.53369235    -0.04170
C693        C  0.60314205  0.76627031  0.58615762    -0.01270
C694        C  0.64317562  0.76483583  0.62454684     0.03700
C695        C  0.74432414  0.82585300  0.55024084     0.38350
C696        C  0.55025839  0.75149773  0.59993370     0.38340
C697        C  0.62561216  0.76144659  0.67889234     0.36770
C698        C  0.67944749  0.79801134  0.46572155     0.36770
N699        N  0.60939066  0.75881117  0.72121169    -0.38050
N700        N  0.68941653  0.80781421  0.42264209    -0.38050
N701        N  0.50892328  0.73748479  0.61122604    -0.37500
N702        N  0.77016933  0.86023717  0.53667655    -0.37500
C703        C  0.29584977  0.76247609  0.59449983    -0.04170
C704        C  0.29127762  0.76523029  0.53720409    -0.01280
C705        C  0.33607695  0.76920093  0.50467456     0.03700
C706        C  0.38314042  0.78818823  0.52453379    -0.04170
C707        C  0.38606639  0.80022071  0.57768658    -0.01270
C708        C  0.34745732  0.78068380  0.61252823     0.03700
C709        C  0.24525007  0.78117043  0.50878314     0.38350
C710        C  0.43211369  0.82797368  0.59696383     0.38340
C711        C  0.36940213  0.77224843  0.66400242     0.36770
C712        C  0.33341038  0.75751295  0.44875572     0.36770
N713        N  0.39577694  0.76667642  0.70040826    -0.38050
N714        N  0.33470684  0.74804337  0.40421954    -0.38050
N715        N  0.46819719  0.85094097  0.61215342    -0.37500
N716        N  0.21316975  0.79755386  0.48128102    -0.37500
C717        C  0.61588396  0.77648883  0.30850782    -0.04170
C718        C  0.63231260  0.72516371  0.29553805    -0.01280
C719        C  0.65375762  0.71309575  0.24599661     0.03700
C720        C  0.67607713  0.75355839  0.21241034    -0.04170
C721        C  0.65832701  0.80579077  0.22583812    -0.01270
C722        C  0.63048888  0.81695593  0.27397648     0.03700
C723        C  0.62925575  0.68348268  0.33415867     0.38350
C724        C  0.64841432  0.84315783  0.18544862     0.38340
C725        C  0.61469463  0.87057106  0.28648646     0.36770
C726        C  0.65613043  0.65686279  0.23317863     0.36770
N727        N  0.60237510  0.91345459  0.29627436    -0.38050
N728        N  0.65712066  0.61190221  0.22533726    -0.38050
N729        N  0.63150592  0.87357402  0.15661293    -0.37500
N730        N  0.62719363  0.65026201  0.36459848    -0.37500
C731        C  0.32599863  0.77254494  0.22030432    -0.04170
C732        C  0.31613974  0.81222571  0.26101364    -0.01280
C733        C  0.35317510  0.82202682  0.30238690     0.03700
C734        C  0.40103817  0.79559656  0.30284167    -0.04170
C735        C  0.41726133  0.77037843  0.25696000    -0.01270
C736        C  0.38255730  0.76386487  0.21437482     0.03700
C737        C  0.26960696  0.84393607  0.26571282     0.38350
C738        C  0.47135307  0.75309208  0.25299528     0.38340
C739        C  0.40929421  0.75589865  0.16447040     0.36770
C740        C  0.34134839  0.85774136  0.34612737     0.36770
N741        N  0.43459830  0.75296827  0.12682325    -0.38050
N742        N  0.33192887  0.88599789  0.38101814    -0.38050
N743        N  0.51449945  0.73976650  0.25084469    -0.37500
N744        N  0.23536361  0.87143344  0.27798316    -0.37500
C745        C  0.77633938  0.68857753  0.59978436    -0.04170
C746        C  0.80098907  0.70434126  0.55045312    -0.01280
C747        C  0.80998013  0.66800111  0.50762988     0.03700
C748        C  0.78767572  0.61827454  0.50748458    -0.04170
C749        C  0.76948716  0.59915020  0.55454925    -0.01270
C750        C  0.77212366  0.63029236  0.60095162     0.03700
C751        C  0.82450726  0.75417192  0.54025753     0.38350
C752        C  0.74536918  0.54720606  0.55546136     0.38340
C753        C  0.76624142  0.59785321  0.64718959     0.36770
C754        C  0.84250246  0.68149084  0.46283098     0.36770
N755        N  0.76413848  0.56635420  0.67940582    -0.38050
N756        N  0.86873726  0.69206109  0.42758671    -0.38050
N757        N  0.72469748  0.50699229  0.55791258    -0.37500
N758        N  0.84819077  0.78947318  0.52502369    -0.37500
C759        C  0.78166479  0.40632046  0.51197457    -0.04170
C760        C  0.74272983  0.36905819  0.50824262    -0.01280
C761        C  0.74825441  0.32316264  0.53618938     0.03700
C762        C  0.76499779  0.32414634  0.59124365    -0.04170
C763        C  0.80498330  0.36532287  0.59693890    -0.01270
C764        C  0.81413394  0.40390225  0.55642783     0.03700
C765        C  0.69545343  0.37761861  0.47804174     0.38350
C766        C  0.84411966  0.36817497  0.63713700     0.38340
C767        C  0.85393781  0.44420489  0.56238388     0.36770
C768        C  0.74574512  0.27745591  0.50155610     0.36770
N769        N  0.88530813  0.47653632  0.56726480    -0.38050
N770        N  0.74475417  0.24470923  0.46936622    -0.38050
N771        N  0.87808722  0.38003816  0.66498831    -0.37500
N772        N  0.65689520  0.38680316  0.45612148    -0.37500
C773        C  0.78941396  0.38640408  0.28814547    -0.04170
C774        C  0.82178111  0.38336430  0.24287018    -0.01280
C775        C  0.81510480  0.34104312  0.20518517     0.03700
C776        C  0.77877363  0.29962708  0.21565463    -0.04170
C777        C  0.77146871  0.29522717  0.27125841    -0.01270
C778        C  0.76268914  0.34050966  0.30095257     0.03700
C779        C  0.86350504  0.42101269  0.23664806     0.38350
C780        C  0.80068683  0.25740777  0.30141413     0.38340
C781        C  0.73120986  0.33456912  0.34711438     0.36770
C782        C  0.85385305  0.33620782  0.16384552     0.36770
N783        N  0.70396751  0.32334115  0.38108157    -0.38050
N784        N  0.88865762  0.33448708  0.13492425    -0.38050
N785        N  0.82487587  0.23002063  0.32812657    -0.37500
N786        N  0.89749267  0.45038920  0.23196274    -0.37500
C787        C  0.78134410  0.61661914  0.27838240    -0.04170
C788        C  0.78233995  0.60449393  0.22461676    -0.01280
C789        C  0.76958386  0.64276841  0.18647617     0.03700
C790        C  0.75370136  0.69550533  0.20172567    -0.04170
C791        C  0.76132258  0.70770001  0.25786271    -0.01270
C792        C  0.76978458  0.66787249  0.29480700     0.03700
C793        C  0.79394787  0.55086576  0.20825466     0.38350
C794        C  0.75699206  0.76095006  0.28071373     0.38340
C795        C  0.76039144  0.67903600  0.35026673     0.36770
C796        C  0.78326683  0.62703382  0.13339759     0.36770
N797        N  0.75000691  0.68874345  0.39359643    -0.38050
N798        N  0.79966756  0.61011916  0.09416813    -0.38050
N799        N  0.75470921  0.80227035  0.30044738    -0.37500
N800        N  0.80230481  0.50836027  0.19390186    -0.37500
C801        C  0.61147495  0.61312020  0.68585225    -0.04170
C802        C  0.64617364  0.63210938  0.72528294    -0.01280
C803        C  0.69175240  0.66200616  0.71232513     0.03700
C804        C  0.69918688  0.68237373  0.66066599    -0.04170
C805        C  0.66511174  0.65828787  0.62064135    -0.01270
C806        C  0.62173048  0.62762346  0.63331902     0.03700
C807        C  0.63757893  0.61762065  0.77945869     0.38350
C808        C  0.67259023  0.66545369  0.56391846     0.38340
C809        C  0.58793265  0.61143957  0.58953384     0.36770
C810        C  0.73624447  0.65163376  0.74533260     0.36770
N811        N  0.56320161  0.59840039  0.55352058    -0.38050
N812        N  0.76886373  0.63666123  0.77300100    -0.38050
N813        N  0.67645836  0.66849085  0.51869674    -0.37500
N814        N  0.63096463  0.60618187  0.82278058    -0.37500
C815        C  0.38767900  0.61475087  0.68091805    -0.04170
C816        C  0.35022139  0.62955145  0.71912078    -0.01280
C817        C  0.30784129  0.66499211  0.70719405     0.03700
C818        C  0.30108220  0.68634488  0.65517287    -0.04170
C819        C  0.33625744  0.66226532  0.61674906    -0.01270
C820        C  0.38216992  0.63584153  0.63085098     0.03700
C821        C  0.35344257  0.60571905  0.77060865     0.38350
C822        C  0.32383069  0.65727070  0.56124068     0.38340
C823        C  0.42302444  0.62931480  0.59160167     0.36770
C824        C  0.26811703  0.66769983  0.74744084     0.36770
N825        N  0.45440159  0.62494659  0.55919014    -0.38050
N826        N  0.24273616  0.66545055  0.78494427    -0.38050
N827        N  0.31612791  0.64976806  0.51697230    -0.37500
N828        N  0.35572935  0.58679341  0.81160847    -0.37500
C829        C  0.31143792  0.30852212  0.65816703    -0.04170
C830        C  0.33203751  0.31408231  0.71125890    -0.01280
C831        C  0.36709572  0.35614625  0.72594302     0.03700
C832        C  0.38261006  0.39391507  0.68953416    -0.04170
C833        C  0.36200015  0.39009849  0.63843344    -0.01270
C834        C  0.33529431  0.34496861  0.62157245     0.03700
C835        C  0.32847894  0.27351005  0.75016854     0.38350
C836        C  0.37063961  0.43191927  0.60080249     0.38340
C837        C  0.33607342  0.33606149  0.56465691     0.36770
C838        C  0.39012486  0.35874410  0.77818801     0.36770
N839        N  0.33860875  0.33020832  0.51950516    -0.38050
N840        N  0.40848879  0.36063807  0.81979386    -0.38050
N841        N  0.37781638  0.46474080  0.57072833    -0.37500
N842        N  0.32951748  0.24700077  0.78671386    -0.37500
C843        C  0.69659576  0.32144122  0.67659910    -0.04170
C844        C  0.64301343  0.30419660  0.68899674    -0.01280
C845        C  0.60363246  0.33993181  0.70630910     0.03700
C846        C  0.61369532  0.39335009  0.71102829    -0.04170
C847        C  0.66488957  0.41070619  0.70726775    -0.01270
C848        C  0.70600622  0.37623319  0.69099582     0.03700
C849        C  0.62323221  0.25123934  0.67803364     0.38350
C850        C  0.67474344  0.46564012  0.72058035     0.38340
C851        C  0.75657386  0.39940314  0.69881719     0.36770
C852        C  0.55065635  0.32247170  0.71625177     0.36770
N853        N  0.79169059  0.42458000  0.71278293    -0.38050
N854        N  0.50840807  0.30925704  0.72466712    -0.38050
N855        N  0.68217987  0.50907574  0.73221549    -0.37500
N856        N  0.60534048  0.21026323  0.66934237    -0.37500
loop_ 
_geom_bond_atom_site_label_1 
_geom_bond_atom_site_label_2 
_geom_bond_distance 
_geom_bond_site_symmetry_2 
_ccdc_geom_bond_type 
O1            V9   1.952       .  S
O1           C11   1.277       .  A
O2            V9   1.953       .  S
O2           C12   1.276       .  A
O3            V9   1.921       .  S
O3           C13   1.268       .  A
O4            V9   1.921       .  S
O4           C14   1.268       .  A
O5           V10   1.886       .  S
O5           C14   1.260       .  A
O6           V10   1.898       .  S
O6           C13   1.267       .  A
O7           V10   1.849       .  S
O7           C12   1.254       .  A
O8           V10   1.856       .  S
O8           C11   1.255       .  A
V9           V10   2.071       .  T
C11         C832   1.510       .  S
C12         C801   1.525       .  S
C13         C815   1.514       .  S
C14         C846   1.486       .  S
O15          V23   1.914       .  S
O15          C25   1.269       .  A
O16          V23   1.902       .  S
O16          C26   1.266       .  A
O17          V23   1.880       .  S
O17          C27   1.257       .  A
O18          V23   1.871       .  S
O18          C28   1.258       .  A
O19          V24   1.933       .  S
O19          C28   1.272       .  A
O20          V24   1.921       .  S
O20          C27   1.270       .  A
O21          V24   1.895       .  S
O21          C26   1.261       .  A
O22          V24   1.905       .  S
O22          C25   1.264       .  A
V23          V24   2.086       .  T
C25         C773   1.494       .  S
C26         C748   1.481       .  S
C27         C787   1.481       .  S
C28         C759   1.501       .  S
O29          V37   1.879       .  S
O29          C39   1.263       .  A
O30          V37   1.886       .  S
O30          C40   1.260       .  A
O31          V37   1.891       .  S
O31          C41   1.264       .  A
O32          V37   1.900       .  S
O32          C42   1.262       .  A
O33          V38   1.904       .  S
O33          C42   1.265       .  A
O34          V38   1.910       .  S
O34          C41   1.264       .  A
O35          V38   1.926       .  S
O35          C40   1.271       .  A
O36          V38   1.936       .  S
O36          C39   1.271       .  A
V37          V38   2.085       .  T
C39         C717   1.522       .  S
C40         C706   1.493       .  S
C41         C734   1.485       .  S
C42         C692   1.482       .  S
O43          V51   1.904       .  S
O43          C53   1.263       .  A
O44          V51   1.904       .  S
O44          C54   1.261       .  A
O45          V51   1.930       .  S
O45          C55   1.273       .  A
O46          V51   1.931       .  S
O46          C56   1.274       .  A
O47          V52   1.884       .  S
O47          C56   1.257       .  A
O48          V52   1.884       .  S
O48          C55   1.259       .  A
O49          V52   1.908       .  S
O49          C54   1.269       .  A
O50          V52   1.910       .  S
O50          C53   1.271       .  A
V51          V52   2.086       .  T
C53         C678   1.506       .  S
C54         C633   1.482       .  S
C55         C661   1.497       .  S
C56         C650   1.492       .  S
O57          V65   1.888       .  S
O57          C67   1.262       .  A
O58          V65   1.886       .  S
O58          C68   1.263       .  A
O59          V65   1.881       .  S
O59          C69   1.258       .  A
O60          V65   1.874       .  S
O60          C70   1.260       .  A
O61          V66   1.931       .  S
O61          C70   1.271       .  A
O62          V66   1.916       .  S
O62          C69   1.268       .  A
O63          V66   1.919       .  S
O63          C68   1.268       .  A
O64          V66   1.913       .  S
O64          C67   1.266       .  A
V65          V66   2.081       .  T
C67         C577   1.481       .  S
C68         C605   1.513       .  S
C69         C619   1.478       .  S
C70         C591   1.522       .  S
O71          V79   1.884       .  S
O71          C81   1.262       .  A
O72          V79   1.879       .  S
O72          C82   1.260       .  A
O73          V79   1.893       .  S
O73          C83   1.266       .  A
O74          V79   1.880       .  S
O74          C84   1.258       .  A
O75          V80   1.905       .  S
O75          C84   1.266       .  A
O76          V80   1.923       .  S
O76          C83   1.268       .  A
O77          V80   1.903       .  S
O77          C82   1.265       .  A
O78          V80   1.909       .  S
O78          C81   1.266       .  A
V79          V80   2.084       .  T
C81         C563   1.497       .  S
C82         C535   1.473       .  S
C83         C549   1.510       .  S
C84         C521   1.473       .  S
C85          C86   1.791       .  S
C85         C689   1.643       .  S
C85         C745   1.683       .  S
C85         C804   1.639       .  S
C86         C479   1.657       .  S
C86         C493   1.687       .  S
C86         C507   1.654       .  S
C87          C88   1.785       .  S
C87         C594   1.661       .  S
C87         C762   1.698       .  S
C87         C843   1.641       .  S
C88         C437   1.679       .  S
C88         C451   1.655       .  S
C88         C465   1.632       .  S
C89          C90   1.774       .  S
C89         C636   1.647       .  S
C89         C703   1.663       .  S
C89         C818   1.639       .  S
C90         C398   1.638       .  S
C90         C409   1.671       .  S
C90         C426   1.673       .  S
C91          C92   1.779       .  S
C91         C538   1.675       .  S
C91         C720   1.649       .  S
C91         C790   1.633       .  S
C92         C356   1.671       .  S
C92         C370   1.631       .  S
C92         C381   1.684       .  S
C93          C94   1.762       .  S
C93         C580   1.652       .  S
C93         C647   1.670       .  S
C93         C829   1.648       .  S
C94         C311   1.653       .  S
C94         C328   1.653       .  S
C94         C342   1.664       .  S
C95          C96   1.778       .  S
C95         C552   1.640       .  S
C95         C664   1.665       .  S
C95         C731   1.663       .  S
C96         C269   1.672       .  S
C96         C283   1.656       .  S
C96         C297   1.672       .  S
C97          C98   1.767       .  S
C97         C524   1.647       .  S
C97         C608   1.649       .  S
C97         C776   1.636       .  S
C98         C227   1.636       .  S
C98         C241   1.646       .  S
C98         C258   1.669       .  S
C99         C100   1.772       .  S
C99         C566   1.659       .  S
C99         C622   1.631       .  S
C99         C675   1.654       .  S
C100        C185   1.643       .  S
C100        C202   1.645       .  S
C100        C216   1.653       .  S
O101        V109   1.892       .  S
O101        C111   1.266       .  A
O102        V109   1.903   1_565  S
O102        C112   1.263       .  A
O103        V109   1.875   1_565  S
O103        C113   1.259       .  A
O104        V109   1.868       .  S
O104        C114   1.259       .  A
O105        V110   1.933   1_545  S
O105        C114   1.273       .  A
O106        V110   1.939       .  S
O106        C113   1.275       .  A
O107        V110   1.893       .  S
O107        C112   1.263       .  A
O108        V110   1.899   1_545  S
O108        C111   1.262       .  A
V109        V110   2.072   1_545  T
C111        C199   1.477   1_556  S
C112        C412   1.477       .  S
C113        C286   1.520   1_556  S
C114        C325   1.505       .  S
O115        V123   1.913   1_655  S
O115        C125   1.269       .  A
O116        V123   1.924       .  S
O116        C126   1.272       .  A
O117        V123   1.872   1_655  S
O117        C127   1.259       .  A
O118        V123   1.895       .  S
O118        C128   1.258       .  A
O119        V124   1.931       .  S
O119        C128   1.275       .  A
O120        V124   1.935   1_655  S
O120        C127   1.273       .  A
O121        V124   1.893       .  S
O121        C126   1.260       .  A
O122        V124   1.890   1_655  S
O122        C125   1.259       .  A
V123        V124   2.081       .  T
C125        C454   1.479       .  S
C126        C188   1.498   1_556  S
C127        C244   1.508   1_556  S
C128        C339   1.493       .  S
O129        V137   1.877   1_545  S
O129        C139   1.255       .  A
O130        V137   1.879   1_455  S
O130        C140   1.259       .  A
O131        V137   1.905       .  S
O131        C141   1.267       .  A
O132        V137   1.915   1_445  S
O132        C142   1.272       .  A
O133        V138   1.912   1_445  S
O133        C142   1.265       .  A
O134        V138   1.902       .  S
O134        C141   1.262       .  A
O135        V138   1.921   1_455  S
O135        C140   1.269       .  A
O136        V138   1.902   1_545  S
O136        C139   1.269       .  A
V137        V138   2.085       .  T
C139        C255   1.471       .  S
C140        C300   1.488       .  S
C141        C384   1.484       .  S
C142        C213   1.522       .  S
O143        V151   1.885       .  S
O143        C153   1.259       .  A
O144        V151   1.905   1_565  S
O144        C154   1.262       .  A
O145        V151   1.959   1_565  S
O145        C155   1.282       .  A
O146        V151   1.963       .  S
O146        C156   1.282       .  A
O147        V152   1.861       .  S
O147        C156   1.253       .  A
O148        V152   1.845   1_565  S
O148        C155   1.249       .  A
O149        V152   1.905   1_565  S
O149        C154   1.268       .  A
O150        V152   1.915       .  S
O150        C153   1.270       .  A
V151        V152   2.061       .  T
C153        C230   1.479   1_556  S
C154        C496   1.491       .  S
C155        C367   1.523   1_556  S
C156        C440   1.517       .  S
O157        V165   1.920       .  S
O157        C167   1.268       .  A
O158        V165   1.911   1_465  S
O158        C168   1.265       .  A
O159        V165   1.915   1_565  S
O159        C169   1.269       .  A
O160        V165   1.913   1_455  S
O160        C170   1.267       .  A
O161        V166   1.873   1_455  S
O161        C170   1.258       .  A
O162        V166   1.865   1_565  S
O162        C169   1.255       .  A
O163        V166   1.912   1_465  S
O163        C168   1.269       .  A
O164        V166   1.920       .  S
O164        C167   1.269       .  A
V165        V166   2.086       .  T
C167        C468   1.507       .  S
C168        C423   1.499       .  S
C169        C510   1.479       .  S
C170        C314   1.474       .  S
O171        V179   1.913   1_655  S
O171        C181   1.266       .  A
O172        V179   1.909       .  S
O172        C182   1.266       .  A
O173        V179   1.909   1_655  S
O173        C183   1.266       .  A
O174        V179   1.919       .  S
O174        C184   1.268       .  A
O175        V180   1.871       .  S
O175        C184   1.261       .  A
O176        V180   1.885   1_655  S
O176        C183   1.259       .  A
O177        V180   1.900       .  S
O177        C182   1.263       .  A
O178        V180   1.891   1_655  S
O178        C181   1.265       .  A
V179        V180   2.085       .  T
C181        C482   1.504       .  S
C182        C272   1.485   1_556  S
C183        C353   1.475   1_556  S
C184        C395   1.496       .  S
C185        C186   1.456       .  A
C185        C190   1.451       .  A
C186        C187   1.431       .  A
C186        C191   1.439       .  S
C187        C188   1.403       .  A
C187        C194   1.456   1_554  S
C188        C189   1.400       .  A
C189        C190   1.417       .  A
C189        C192   1.448       .  S
C190        C193   1.451       .  S
C191        N198   1.159       .  T
C192        N197   1.155   1_455  T
C193        N195   1.159       .  T
C194        N196   1.158       .  T
C199        C200   1.372   1_554  A
C199        C204   1.383       .  A
C200        C201   1.391   1_556  A
C200        C205   1.444       .  S
C201        C202   1.453       .  A
C201        C208   1.440       .  S
C202        C203   1.480       .  A
C203        C204   1.433       .  A
C203        C206   1.444       .  S
C204        C207   1.460       .  S
C205        N212   1.155       .  T
C206        N211   1.159       .  T
C207        N209   1.157       .  T
C208        N210   1.156       .  T
C213        C214   1.426       .  A
C213        C218   1.401       .  A
C214        C215   1.448       .  A
C214        C219   1.451       .  S
C215        C216   1.456       .  A
C215        C222   1.448       .  S
C216        C217   1.442       .  A
C217        C218   1.394       .  A
C217        C220   1.446       .  S
C218        C221   1.450       .  S
C219        N226   1.157       .  T
C220        N225   1.158       .  T
C221        N223   1.158       .  T
C222        N224   1.158       .  T
C227        C228   1.428       .  A
C227        C232   1.440       .  A
C228        C229   1.423       .  A
C228        C233   1.445       .  S
C229        C230   1.413       .  A
C229        C236   1.452       .  S
C230        C231   1.398       .  A
C231        C232   1.403       .  A
C231        C234   1.451   1_554  S
C232        C235   1.445       .  S
C233        N240   1.158       .  T
C234        N239   1.156       .  T
C235        N237   1.158       .  T
C236        N238   1.157       .  T
C241        C242   1.451       .  A
C241        C246   1.445       .  A
C242        C243   1.435       .  A
C242        C247   1.439       .  S
C243        C244   1.407       .  A
C243        C250   1.454       .  S
C244        C245   1.408       .  A
C245        C246   1.402       .  A
C245        C248   1.462       .  S
C246        C249   1.446       .  S
C247        N254   1.159       .  T
C248        N253   1.158       .  T
C249        N251   1.157       .  T
C250        N252   1.157   1_554  T
C255        C256   1.386       .  A
C255        C260   1.381       .  A
C256        C257   1.413       .  A
C256        C261   1.458       .  S
C257        C258   1.470       .  A
C257        C264   1.446       .  S
C258        C259   1.467       .  A
C259        C260   1.420       .  A
C259        C262   1.429       .  S
C260        C263   1.465       .  S
C261        N268   1.157   1_545  T
C262        N267   1.160       .  T
C263        N265   1.157       .  T
C264        N266   1.159       .  T
C269        C270   1.460       .  A
C269        C274   1.460       .  A
C270        C271   1.434       .  A
C270        C275   1.436       .  S
C271        C272   1.397       .  A
C271        C278   1.457       .  S
C272        C273   1.393       .  A
C273        C274   1.414       .  A
C273        C276   1.454   1_554  S
C274        C277   1.439       .  S
C275        N282   1.158       .  T
C276        N281   1.156       .  T
C277        N279   1.159       .  T
C278        N280   1.158       .  T
C283        C284   1.453       .  A
C283        C288   1.468       .  A
C284        C285   1.435       .  A
C284        C289   1.436       .  S
C285        C286   1.405       .  A
C285        C292   1.456       .  S
C286        C287   1.411       .  A
C287        C288   1.416       .  A
C287        C290   1.461   1_554  S
C288        C291   1.465       .  S
C289        N296   1.159       .  T
C290        N295   1.158       .  T
C291        N293   1.159       .  T
C292        N294   1.157       .  T
C297        C298   1.463       .  A
C297        C302   1.468       .  A
C298        C299   1.441       .  A
C298        C303   1.433       .  S
C299        C300   1.398       .  A
C299        C306   1.455       .  S
C300        C301   1.387       .  A
C301        C302   1.397       .  A
C301        C304   1.452       .  S
C302        C305   1.450       .  S
C303        N310   1.159       .  T
C304        N309   1.155       .  T
C305        N307   1.158       .  T
C306        N308   1.158       .  T
C311        C312   1.463       .  A
C311        C316   1.464       .  A
C312        C313   1.429       .  A
C312        C317   1.436       .  S
C313        C314   1.391       .  A
C313        C320   1.451       .  S
C314        C315   1.389       .  A
C315        C316   1.396       .  A
C315        C318   1.458       .  S
C316        C319   1.446       .  S
C317        N324   1.158       .  T
C318        N323   1.157       .  T
C319        N321   1.158       .  T
C320        N322   1.156       .  T
C325        C326   1.398       .  A
C325        C330   1.400       .  A
C326        C327   1.437       .  A
C326        C331   1.457       .  S
C327        C328   1.466       .  A
C327        C334   1.436       .  S
C328        C329   1.456       .  A
C329        C330   1.401       .  A
C329        C332   1.450       .  S
C330        C333   1.464       .  S
C331        N338   1.157       .  T
C332        N337   1.157       .  T
C333        N335   1.158       .  T
C334        N336   1.160       .  T
C339        C340   1.405       .  A
C339        C344   1.394       .  A
C340        C341   1.410       .  A
C340        C345   1.445       .  S
C341        C342   1.437       .  A
C341        C348   1.444       .  S
C342        C343   1.455       .  A
C343        C344   1.415       .  A
C343        C346   1.440       .  S
C344        C347   1.446       .  S
C345        N352   1.157       .  T
C346        N351   1.159       .  T
C347        N349   1.154       .  T
C348        N350   1.159       .  T
C353        C354   1.388       .  A
C353        C358   1.383       .  A
C354        C355   1.425       .  A
C354        C359   1.457   1_554  S
C355        C356   1.476       .  A
C355        C362   1.446       .  S
C356        C357   1.457       .  A
C357        C358   1.405       .  A
C357        C360   1.442       .  S
C358        C361   1.446       .  S
C359        N366   1.157       .  T
C360        N365   1.159       .  T
C361        N363   1.157       .  T
C362        N364   1.156   1_554  T
C367        C368   1.405       .  A
C367        C372   1.421       .  A
C368        C369   1.431       .  A
C368        C373   1.453       .  S
C369        C370   1.450       .  A
C369        C376   1.436       .  S
C370        C371   1.454       .  A
C371        C372   1.414       .  A
C371        C374   1.453       .  S
C372        C375   1.464       .  S
C373        N380   1.157       .  T
C374        N379   1.156       .  T
C375        N377   1.158   1_554  T
C376        N378   1.159       .  T
C381        C382   1.467       .  A
C381        C386   1.472       .  A
C382        C383   1.412       .  A
C382        C387   1.446       .  S
C383        C384   1.382       .  A
C383        C390   1.452       .  S
C384        C385   1.392       .  A
C385        C386   1.428       .  A
C385        C388   1.455       .  S
C386        C389   1.439       .  S
C387        N394   1.159       .  T
C388        N393   1.157       .  T
C389        N391   1.158       .  T
C390        N392   1.156       .  T
C395        C396   1.394       .  A
C395        C400   1.402       .  A
C396        C397   1.391       .  A
C396        C401   1.451       .  S
C397        C398   1.448       .  A
C397        C404   1.454       .  S
C398        C399   1.462       .  A
C399        C400   1.437       .  A
C399        C402   1.435       .  S
C400        C403   1.457       .  S
C401        N408   1.154       .  T
C402        N407   1.159       .  T
C403        N405   1.157       .  T
C404        N406   1.158       .  T
C409        C410   1.463       .  A
C409        C414   1.441       .  A
C410        C411   1.420       .  A
C410        C415   1.438       .  S
C411        C412   1.392       .  A
C411        C418   1.458       .  S
C412        C413   1.396       .  A
C413        C414   1.414       .  A
C413        C416   1.448       .  S
C414        C417   1.442       .  S
C415        N422   1.159       .  T
C416        N421   1.154   1_565  T
C417        N419   1.157       .  T
C418        N420   1.157       .  T
C423        C424   1.387       .  A
C423        C428   1.403       .  A
C424        C425   1.412       .  A
C424        C429   1.460       .  S
C425        C426   1.471       .  A
C425        C432   1.444       .  S
C426        C427   1.459       .  A
C427        C428   1.441       .  A
C427        C430   1.438       .  S
C428        C431   1.455       .  S
C429        N436   1.157       .  T
C430        N435   1.159       .  T
C431        N433   1.157       .  T
C432        N434   1.159       .  T
C437        C438   1.467       .  A
C437        C442   1.449       .  A
C438        C439   1.411       .  A
C438        C443   1.458       .  S
C439        C440   1.415       .  A
C439        C446   1.460       .  S
C440        C441   1.405       .  A
C441        C442   1.431       .  A
C441        C444   1.449       .  S
C442        C445   1.444       .  S
C443        N450   1.158       .  T
C444        N449   1.157       .  T
C445        N447   1.158       .  T
C446        N448   1.158       .  T
C451        C452   1.472       .  A
C451        C456   1.471       .  A
C452        C453   1.419       .  A
C452        C457   1.439       .  S
C453        C454   1.380       .  A
C453        C460   1.455       .  S
C454        C455   1.385       .  A
C455        C456   1.421       .  A
C455        C458   1.454       .  S
C456        C459   1.436       .  S
C457        N464   1.159       .  T
C458        N463   1.157       .  T
C459        N461   1.158       .  T
C460        N462   1.158       .  T
C465        C466   1.446       .  A
C465        C470   1.440       .  A
C466        C467   1.409       .  A
C466        C471   1.459       .  S
C467        C468   1.401       .  A
C467        C474   1.434       .  S
C468        C469   1.407       .  A
C469        C470   1.434       .  A
C469        C472   1.448       .  S
C470        C473   1.444       .  S
C471        N478   1.158       .  T
C472        N477   1.156       .  T
C473        N475   1.158       .  T
C474        N476   1.151       .  T
C479        C480   1.462       .  A
C479        C484   1.464       .  A
C480        C481   1.409       .  A
C480        C485   1.435       .  S
C481        C482   1.386       .  A
C481        C488   1.464       .  S
C482        C483   1.397       .  A
C483        C484   1.443       .  A
C483        C486   1.459       .  S
C484        C487   1.431       .  S
C485        N492   1.152       .  T
C486        N491   1.157       .  T
C487        N489   1.159       .  T
C488        N490   1.157       .  T
C493        C494   1.470       .  A
C493        C498   1.472       .  A
C494        C495   1.421       .  A
C494        C499   1.447       .  S
C495        C496   1.383       .  A
C495        C502   1.457       .  S
C496        C497   1.390       .  A
C497        C498   1.434       .  A
C497        C500   1.454       .  S
C498        C501   1.438       .  S
C499        N506   1.159       .  T
C500        N505   1.156       .  T
C501        N503   1.158       .  T
C502        N504   1.157       .  T
C507        C508   1.472       .  A
C507        C512   1.452       .  A
C508        C509   1.435       .  A
C508        C513   1.438       .  S
C509        C510   1.393       .  A
C509        C516   1.456       .  S
C510        C511   1.389       .  A
C511        C512   1.402       .  A
C511        C514   1.449       .  S
C512        C515   1.444       .  S
C513        N520   1.158       .  T
C514        N519   1.159       .  T
C515        N517   1.159       .  T
C516        N518   1.157       .  T
C521        C522   1.389       .  A
C521        C526   1.382       .  A
C522        C523   1.417       .  A
C522        C527   1.455       .  S
C523        C524   1.468       .  A
C523        C530   1.444       .  S
C524        C525   1.467       .  A
C525        C526   1.418       .  A
C525        C528   1.444       .  S
C526        C529   1.461       .  S
C527        N534   1.156       .  T
C528        N533   1.156       .  T
C529        N531   1.156       .  T
C530        N532   1.159       .  T
C535        C536   1.385       .  A
C535        C540   1.390       .  A
C536        C537   1.410       .  A
C536        C541   1.456       .  S
C537        C538   1.478       .  A
C537        C544   1.451       .  S
C538        C539   1.446       .  A
C539        C540   1.425       .  A
C539        C542   1.434       .  S
C540        C543   1.458       .  S
C541        N548   1.156       .  T
C542        N547   1.158       .  T
C543        N545   1.158       .  T
C544        N546   1.158       .  T
C549        C550   1.392       .  A
C549        C554   1.414       .  A
C550        C551   1.389       .  A
C550        C555   1.448       .  S
C551        C552   1.456       .  A
C551        C558   1.456       .  S
C552        C553   1.450       .  A
C553        C554   1.446       .  A
C553        C556   1.445       .  S
C554        C557   1.453       .  S
C555        N562   1.154       .  T
C556        N561   1.158       .  T
C557        N559   1.158       .  T
C558        N560   1.158       .  T
C563        C564   1.408       .  A
C563        C568   1.395       .  A
C564        C565   1.441       .  A
C564        C569   1.455       .  S
C565        C566   1.457       .  A
C565        C572   1.433       .  S
C566        C567   1.443       .  A
C567        C568   1.391       .  A
C567        C570   1.446       .  S
C568        C571   1.450       .  S
C569        N576   1.158       .  T
C570        N575   1.158       .  T
C571        N573   1.157       .  T
C572        N574   1.153       .  T
C577        C578   1.387       .  A
C577        C582   1.398       .  A
C578        C579   1.397       .  A
C578        C583   1.449       .  S
C579        C580   1.464       .  A
C579        C586   1.457       .  S
C580        C581   1.456       .  A
C581        C582   1.434       .  A
C581        C584   1.442       .  S
C582        C585   1.452       .  S
C583        N590   1.153       .  T
C584        N589   1.160       .  T
C585        N587   1.157       .  T
C586        N588   1.158       .  T
C591        C592   1.410       .  A
C591        C596   1.410       .  A
C592        C593   1.411       .  A
C592        C597   1.465       .  S
C593        C594   1.477       .  A
C593        C600   1.467       .  S
C594        C595   1.452       .  A
C595        C596   1.431       .  A
C595        C598   1.440       .  S
C596        C599   1.454       .  S
C597        N604   1.158       .  T
C598        N603   1.159       .  T
C599        N601   1.157       .  T
C600        N602   1.158       .  T
C605        C606   1.411       .  A
C605        C610   1.404       .  A
C606        C607   1.434       .  A
C606        C611   1.455       .  S
C607        C608   1.444       .  A
C607        C614   1.436       .  S
C608        C609   1.458       .  A
C609        C610   1.404       .  A
C609        C612   1.453       .  S
C610        C613   1.459       .  S
C611        N618   1.158       .  T
C612        N617   1.158       .  T
C613        N615   1.158       .  T
C614        N616   1.159       .  T
C619        C620   1.394       .  A
C619        C624   1.400       .  A
C620        C621   1.406       .  A
C620        C625   1.444       .  S
C621        C622   1.451       .  A
C621        C628   1.442       .  S
C622        C623   1.458       .  A
C623        C624   1.422       .  A
C623        C626   1.446       .  S
C624        C627   1.453       .  S
C625        N632   1.154       .  T
C626        N631   1.158       .  T
C627        N629   1.156       .  T
C628        N630   1.159       .  T
C633        C634   1.397       .  A
C633        C638   1.372       .  A
C634        C635   1.430       .  A
C634        C639   1.450       .  S
C635        C636   1.443       .  A
C635        C642   1.442       .  S
C636        C637   1.480       .  A
C637        C638   1.407       .  A
C637        C640   1.453       .  S
C638        C641   1.455       .  S
C639        N646   1.157       .  T
C640        N645   1.159       .  T
C641        N643   1.158       .  T
C642        N644   1.159       .  T
C647        C648   1.477       .  A
C647        C652   1.468       .  A
C648        C649   1.437       .  A
C648        C653   1.430       .  S
C649        C650   1.388       .  A
C649        C656   1.461       .  S
C650        C651   1.387       .  A
C651        C652   1.417       .  A
C651        C654   1.452       .  S
C652        C655   1.445       .  S
C653        N660   1.158       .  T
C654        N659   1.157       .  T
C655        N657   1.155       .  T
C656        N658   1.157       .  T
C661        C662   1.393       .  A
C661        C666   1.383       .  A
C662        C663   1.423       .  A
C662        C667   1.450       .  S
C663        C664   1.462       .  A
C663        C670   1.439       .  S
C664        C665   1.479       .  A
C665        C666   1.429       .  A
C665        C668   1.446       .  S
C666        C669   1.458       .  S
C667        N674   1.153       .  T
C668        N673   1.155       .  T
C669        N671   1.157       .  T
C670        N672   1.159       .  T
C675        C676   1.466       .  A
C675        C680   1.464       .  A
C676        C677   1.405       .  A
C676        C681   1.449       .  S
C677        C678   1.387       .  A
C677        C684   1.457       .  S
C678        C679   1.401       .  A
C679        C680   1.436       .  A
C679        C682   1.457       .  S
C680        C683   1.441       .  S
C681        N688   1.157       .  T
C682        N687   1.158       .  T
C683        N685   1.159       .  T
C684        N686   1.156       .  T
C689        C690   1.436       .  A
C689        C694   1.472       .  A
C690        C691   1.418       .  A
C690        C695   1.437       .  S
C691        C692   1.401       .  A
C691        C698   1.455       .  S
C692        C693   1.396       .  A
C693        C694   1.415       .  A
C693        C696   1.452       .  S
C694        C697   1.459       .  S
C695        N702   1.157       .  T
C696        N701   1.157       .  T
C697        N699   1.158       .  T
C698        N700   1.157       .  T
C703        C704   1.464       .  A
C703        C708   1.472       .  A
C704        C705   1.421       .  A
C704        C709   1.442       .  S
C705        C706   1.391       .  A
C705        C712   1.449       .  S
C706        C707   1.383       .  A
C707        C708   1.426       .  A
C707        C710   1.457       .  S
C708        C711   1.443       .  S
C709        N716   1.159       .  T
C710        N715   1.158       .  T
C711        N713   1.155       .  T
C712        N714   1.154       .  T
C717        C718   1.404       .  A
C717        C722   1.417       .  A
C718        C719   1.404       .  A
C718        C723   1.461       .  S
C719        C720   1.468       .  A
C719        C726   1.463       .  S
C720        C721   1.438       .  A
C721        C722   1.441       .  A
C721        C724   1.433       .  S
C722        C725   1.451       .  S
C723        N730   1.158       .  T
C724        N729   1.158       .  T
C725        N727   1.158       .  T
C726        N728   1.158       .  T
C731        C732   1.455       .  A
C731        C736   1.472       .  A
C732        C733   1.434       .  A
C732        C737   1.440       .  S
C733        C734   1.396       .  A
C733        C740   1.455       .  S
C734        C735   1.385       .  A
C735        C736   1.408       .  A
C735        C738   1.455       .  S
C736        C739   1.454       .  S
C737        N744   1.159       .  T
C738        N743   1.156       .  T
C739        N741   1.158       .  T
C740        N742   1.157       .  T
C745        C746   1.469       .  A
C745        C750   1.488       .  A
C746        C747   1.435       .  A
C746        C751   1.434       .  S
C747        C748   1.390       .  A
C747        C754   1.459       .  S
C748        C749   1.383       .  A
C749        C750   1.412       .  A
C749        C752   1.462       .  S
C750        C753   1.457       .  S
C751        N758   1.159       .  T
C752        N757   1.157       .  T
C753        N755   1.158       .  T
C754        N756   1.158       .  T
C759        C760   1.381       .  A
C759        C764   1.404       .  A
C760        C761   1.384       .  A
C760        C765   1.450       .  S
C761        C762   1.463       .  A
C761        C768   1.448       .  S
C762        C763   1.473       .  A
C763        C764   1.456       .  A
C763        C766   1.431       .  S
C764        C767   1.455       .  S
C765        N772   1.158       .  T
C766        N771   1.158       .  T
C767        N769   1.157       .  T
C768        N770   1.158       .  T
C773        C774   1.421       .  A
C773        C778   1.400       .  A
C774        C775   1.439       .  A
C774        C779   1.449       .  S
C775        C776   1.438       .  A
C775        C782   1.451       .  S
C776        C777   1.433       .  A
C777        C778   1.384       .  A
C777        C780   1.446       .  S
C778        C781   1.436       .  S
C779        N786   1.158       .  T
C780        N785   1.158       .  T
C781        N783   1.152       .  T
C782        N784   1.157       .  T
C787        C788   1.397       .  A
C787        C792   1.393       .  A
C788        C789   1.423       .  A
C788        C793   1.449       .  S
C789        C790   1.447       .  A
C789        C796   1.445       .  S
C790        C791   1.468       .  A
C791        C792   1.410       .  A
C791        C794   1.469       .  S
C792        C795   1.454       .  S
C793        N800   1.155       .  T
C794        N799   1.158       .  T
C795        N797   1.156       .  T
C796        N798   1.159       .  T
C801        C802   1.418       .  A
C801        C806   1.418       .  A
C802        C803   1.438       .  A
C802        C807   1.450       .  S
C803        C804   1.434       .  A
C803        C810   1.440       .  S
C804        C805   1.467       .  A
C805        C806   1.402       .  A
C805        C808   1.470       .  S
C806        C809   1.463       .  S
C807        N814   1.158       .  T
C808        N813   1.159       .  T
C809        N811   1.157       .  T
C810        N812   1.159       .  T
C815        C816   1.412       .  A
C815        C820   1.397       .  A
C816        C817   1.443       .  A
C816        C821   1.455       .  S
C817        C818   1.449       .  A
C817        C824   1.445       .  S
C818        C819   1.456       .  A
C819        C820   1.401       .  A
C819        C822   1.450       .  S
C820        C823   1.455       .  S
C821        N828   1.157       .  T
C822        N827   1.155       .  T
C823        N825   1.156       .  T
C824        N826   1.158       .  T
C829        C830   1.453       .  A
C829        C834   1.462       .  A
C830        C831   1.444       .  A
C830        C835   1.446       .  S
C831        C832   1.405       .  A
C831        C838   1.453       .  S
C832        C833   1.404       .  A
C833        C834   1.399       .  A
C833        C836   1.461       .  S
C834        C837   1.461       .  S
C835        N842   1.158       .  T
C836        N841   1.158       .  T
C837        N839   1.157       .  T
C838        N840   1.157       .  T
C843        C844   1.479       .  A
C843        C848   1.456       .  A
C844        C845   1.420       .  A
C844        C849   1.464       .  S
C845        C846   1.388       .  A
C845        C852   1.454       .  S
C846        C847   1.389       .  A
C847        C848   1.425       .  A
C847        C850   1.455       .  S
C848        C851   1.437       .  S
C849        N856   1.158       .  T
C850        N855   1.156       .  T
C851        N853   1.158       .  T
C852        N854   1.156       .  T
