geometry optimzed in LAMMPS
_audit_creation_date              2020-12-01 
_audit_creation_method            'lammps2cif' 
_symmetry_space_group_name_H-M    'P1' 
_symmetry_Int_Tables_number       1 
_symmetry_cell_setting            triclinic 
loop_ 
_symmetry_equiv_pos_as_xyz 
  x,y,z 
_cell_length_a                    38.01651855 
_cell_length_b                    37.354689476351346 
_cell_length_c                    37.6996666048974 
_cell_angle_alpha                 93.47731741812292 
_cell_angle_beta                  90.12751966212925 
_cell_angle_gamma                 89.26610586684838 
loop_ 
_atom_site_label 
_atom_site_type_symbol 
_atom_site_fract_x 
_atom_site_fract_y 
_atom_site_fract_z 
_atom_site_charge 
C1          C  0.21827774  0.24897334  0.22774319    -0.02300
C2          C  0.09736046  0.46842500  0.43933871     0.30200
C3          C  0.10177329  0.53127852  0.48029173     0.30200
C4          C  0.11776953  0.49870827  0.42284408    -0.06000
C5          C  0.06193356  0.48704546  0.44903869    -0.06800
C6          C  0.11394510  0.46559551  0.47659586    -0.06700
C7          C  0.11977091  0.53066487  0.44392889    -0.06000
C8          C  0.06375749  0.51942330  0.47015990    -0.06800
C9          C  0.11641871  0.49779638  0.49692532    -0.06700
C10         C  0.12261857  0.55813253  0.42130932    -0.32100
N11         N  0.12322664  0.54445764  0.38724905     0.14400
C12         C  0.11964322  0.50838736  0.38786451    -0.32100
H13         H  0.11482242  0.49087300  0.36450353     0.16400
C14         C  0.02926439  0.53064602  0.47615157    -0.31100
N15         N  0.00740185  0.50635201  0.45947571     0.13100
C16         C  0.02706956  0.47971102  0.44297401    -0.31100
C17         C  0.11736430  0.48981729  0.53213680    -0.31400
N18         N  0.11617408  0.45384599  0.53454476     0.13600
H19         H  0.11578814  0.50939701  0.55444376     0.16300
C20         C  0.11224402  0.43910294  0.50092679    -0.31400
H21         H  0.10650006  0.41122496  0.49441342     0.16300
H22         H  0.01685330  0.45650412  0.42803978     0.16300
H23         H  0.12121254  0.58642997  0.42930010     0.16300
H24         H  0.02036733  0.55461613  0.49100230     0.16300
C25         C  0.22718547  0.77588842  0.67841774    -0.02300
C26         C  0.44554201  0.12018810  0.42539002     0.30200
C27         C  0.50055972  0.11789515  0.47233139     0.30200
C28         C  0.44104091  0.14286908  0.46059486    -0.06000
C29         C  0.45424520  0.08252782  0.43896248    -0.06800
C30         C  0.48127681  0.13200222  0.41174984    -0.06700
C31         C  0.46903433  0.14180041  0.48468534    -0.06000
C32         C  0.48277512  0.08178840  0.46269148    -0.06800
C33         C  0.50946023  0.13043647  0.43498859    -0.06700
C34         C  0.45430269  0.14759911  0.51824272    -0.32100
N35         N  0.41901666  0.15295440  0.51543197     0.14400
C36         C  0.41089842  0.14939819  0.48035565    -0.32100
H37         H  0.38456284  0.14849209  0.46952973     0.16400
C38         C  0.48842018  0.04679253  0.47075601    -0.31100
N39         N  0.46347741  0.02638925  0.45424496     0.13100
C40         C  0.44257658  0.04742315  0.43464280    -0.31100
C41         C  0.53922229  0.13793412  0.41551058    -0.31400
N42         N  0.52947197  0.14551783  0.38193275     0.13600
H43         H  0.56609926  0.13763531  0.42489395     0.16300
C44         C  0.49402578  0.14150499  0.37947310    -0.31400
H45         H  0.47856636  0.14432515  0.35564579     0.16300
H46         H  0.42143763  0.03721575  0.41795350     0.16300
H47         H  0.46794865  0.14407675  0.54301239     0.16300
H48         H  0.50993393  0.03641639  0.48608492     0.16300
C49         C  0.74781786  0.28403610  0.18884003    -0.02300
C50         C  0.23848995  0.27474272  0.76426968    -0.02300
C51         C  0.87909860  0.52827482  0.49139740     0.30200
C52         C  0.87953520  0.48003727  0.43387417     0.30200
C53         C  0.85348170  0.53648021  0.46130943    -0.06000
C54         C  0.91471695  0.52447474  0.47132247    -0.06800
C55         C  0.87155122  0.48919629  0.49884310    -0.06700
C56         C  0.85343572  0.51153560  0.43198018    -0.06000
C57         C  0.91476434  0.49949871  0.44149355    -0.06800
C58         C  0.87184984  0.46482910  0.46984900    -0.06700
C59         C  0.84649476  0.53075816  0.40254511    -0.32100
N60         N  0.84261622  0.56606767  0.41232454     0.14400
C61         C  0.84707745  0.56967964  0.44799400    -0.32100
H62         H  0.85091565  0.59507238  0.46278629     0.16400
C63         C  0.94938447  0.49011559  0.43471384    -0.31100
N64         N  0.97028625  0.50912246  0.45800872     0.13100
C65         C  0.94957650  0.52909834  0.48113564    -0.31100
C66         C  0.86976166  0.43109573  0.48259857    -0.31400
N67         N  0.86764711  0.43441140  0.51865538     0.13600
H68         H  0.87134301  0.40596433  0.46680927     0.16300
C69         C  0.86908187  0.46995320  0.52875813    -0.31400
H70         H  0.86900299  0.48116573  0.55589064     0.16300
H71         H  0.95909927  0.54318542  0.50505827     0.16300
H72         H  0.84849978  0.51977849  0.37543004     0.16300
H73         H  0.95851218  0.46915257  0.41583515     0.16300
C74         C  0.74514586  0.80820856  0.22918337    -0.02300
C75         C  0.73153867  0.21037054  0.68571132    -0.02300
C76         C  0.45447841  0.89248945  0.47399714     0.30200
C77         C  0.50909216  0.90014933  0.42789672     0.30200
C78         C  0.45242822  0.87019593  0.43833251    -0.06000
C79         C  0.45927738  0.93115322  0.46141083    -0.06800
C80         C  0.49152085  0.88379221  0.48804676    -0.06700
C81         C  0.48045696  0.87377491  0.41478608    -0.06000
C82         C  0.48759965  0.93460791  0.43778642    -0.06800
C83         C  0.51910253  0.88804831  0.46498540    -0.06700
C84         C  0.46680815  0.86731638  0.38083523    -0.32100
N85         N  0.43215219  0.85952980  0.38291292     0.14400
C86         C  0.42311412  0.86214523  0.41771463    -0.32100
H87         H  0.39638254  0.86146671  0.42745016     0.16400
C88         C  0.49118394  0.97045939  0.43251510    -0.31100
N89         N  0.46534141  0.98875774  0.45046254     0.13100
C90         C  0.44608236  0.96572909  0.46880246    -0.31100
C91         C  0.54977330  0.88119142  0.48339597    -0.31400
N92         N  0.54151664  0.87162925  0.51658253     0.13600
H93         H  0.57625909  0.88268961  0.47324452     0.16300
C94         C  0.50585600  0.87339768  0.51970898    -0.31400
H95         H  0.49135368  0.86806721  0.54344173     0.16300
H96         H  0.42579321  0.97436716  0.48744706     0.16300
H97         H  0.48023220  0.87217428  0.35632366     0.16300
H98         H  0.51213817  0.98303858  0.41869933     0.16300
C99         C  0.21306552  0.74095515  0.16530426    -0.02300
C100        C  0.74249662  0.72927953  0.73331005    -0.02300
C101        C  0.51783676  0.49843433  0.08744866     0.30200
C102        C  0.46175003  0.54398742  0.08052515     0.30200
C103        C  0.51532956  0.53032610  0.11512472    -0.06000
C104        C  0.51635937  0.51735855  0.05180696    -0.06800
C105        C  0.48123937  0.48156327  0.08876083    -0.06700
C106        C  0.48645618  0.55359923  0.11165554    -0.06000
C107        C  0.48713575  0.54104603  0.04855601    -0.06800
C108        C  0.45295092  0.50460458  0.08500325    -0.06700
C109        C  0.49768121  0.58740809  0.12295596    -0.32100
N110        N  0.53168655  0.58574544  0.13338095     0.14400
C111        C  0.54263289  0.55118836  0.12839800    -0.32100
H112        H  0.56970062  0.54217222  0.13009869     0.16400
C113        C  0.48065972  0.54306045  0.01277259    -0.31100
N114        N  0.50543013  0.52378877  0.99436684     0.13100
C115        C  0.52605630  0.50646970  0.01728566    -0.31100
C116        C  0.42285764  0.48497151  0.08811789    -0.31400
N117        N  0.43198073  0.45070234  0.09477591     0.13600
H118        H  0.39623993  0.49519694  0.08623097     0.16300
C119        C  0.46775476  0.44834476  0.09478486    -0.31400
H120        H  0.48298982  0.42469115  0.10036483     0.16300
H121        H  0.54368940  0.48460261  0.00916244     0.16300
H122        H  0.48362526  0.61213312  0.11851963     0.16300
H123        H  0.45744223  0.55412388  0.00069549     0.16300
C124        C  0.51849291  0.53743890  0.86179082     0.30200
C125        C  0.46052538  0.49518764  0.86969096     0.30200
C126        C  0.51808166  0.50150833  0.83986256    -0.06000
C127        C  0.51223740  0.52518607  0.90004550    -0.06800
C128        C  0.48257159  0.55419547  0.85312538    -0.06700
C129        C  0.48877077  0.48014900  0.84377105    -0.06000
C130        C  0.48218946  0.50376638  0.90390437    -0.06800
C131        C  0.45340929  0.53296707  0.85720595    -0.06700
C132        C  0.49884954  0.44547037  0.83347887    -0.32100
N133        N  0.53281141  0.44533651  0.82247720     0.14400
C134        C  0.54493676  0.47925342  0.82716988    -0.32100
H135        H  0.57216771  0.48676046  0.82450373     0.16400
C136        C  0.47748157  0.50048261  0.93980847    -0.31100
N137        N  0.50445683  0.51668268  0.95740009     0.13100
C138        C  0.52531656  0.53253443  0.93405049    -0.31100
C139        C  0.42436777  0.55252758  0.84753899    -0.31400
N140        N  0.43502379  0.58498190  0.83735919     0.13600
H141        H  0.39752995  0.54327271  0.84699352     0.16300
C142        C  0.47064735  0.58621687  0.84086036    -0.31400
H143        H  0.48685748  0.60867103  0.83493466     0.16300
H144        H  0.54632980  0.55019364  0.94233592     0.16300
H145        H  0.48307475  0.42183594  0.83586258     0.16300
H146        H  0.45492501  0.49017839  0.95299691     0.16300
O147        O  0.03394323  0.03090659  0.01676200    -0.80000
O148        O  0.94675811  0.04817199  0.89287570    -0.80000
O149        O  0.03090758  0.06809143  0.94407300    -0.80000
O150        O  0.92289017  0.05158936  0.97558131    -0.80000
O151        O  0.01790977  0.05039741  0.88901516    -0.80100
O152        O  0.96716994  0.06013959  0.01159040    -0.80000
O153        O  0.90633891  0.01487480  0.91431760    -0.80000
O154        O  0.07884457  0.03013164  0.97954000    -0.80000
C155        C  0.06639522  0.03789336  0.01018210     1.09700
C156        C  0.91489424  0.03965750  0.89468505     1.09600
C157        C  0.03062316  0.07363160  0.91126736     1.09700
C158        C  0.93828619  0.07083890  0.99946528     1.09600
O159        O  0.93538541  0.98947306  0.01524246    -0.80000
O160        O  0.01972235  0.97218468  0.88735989    -0.80100
O161        O  0.04507126  0.96692771  0.96909317    -0.80000
O162        O  0.93890902  0.95045173  0.93675149    -0.80000
O163        O  0.94977794  0.97020129  0.88424787    -0.80000
O164        O  0.00229694  0.96014263  0.00625734    -0.80000
O165        O  0.89081804  0.98811944  0.97738829    -0.80000
O166        O  0.06209892  0.00283221  0.91275476    -0.80000
Co167      Co  0.98465001  0.01012681  0.00499670     1.51500
Co168      Co  0.98365568  0.01038680  0.89251980     1.51700
Co169      Co  0.03521875  0.01766899  0.95755371     1.51600
Co170      Co  0.93392221  0.00090454  0.95709410     1.51500
O171        O  0.98433387  0.00987387  0.94696931    -1.41900
C172        C  0.90300684  0.98199063  0.00765845     1.09600
C173        C  0.05206725  0.97793475  0.89085349     1.09700
C174        C  0.03014833  0.94843307  0.99145411     1.09700
C175        C  0.93856898  0.94576944  0.90311889     1.09600
C176        C  0.76882793  0.75231259  0.75656094    -0.03000
C177        C  0.79464671  0.73477624  0.77663191    -0.05700
C178        C  0.81760721  0.75401748  0.79962402    -0.20700
C179        C  0.81594712  0.79155000  0.80320417     0.25000
C180        C  0.79008236  0.80938706  0.78392066    -0.18300
C181        C  0.76658347  0.79013484  0.76142114    -0.08300
C182        C  0.84052557  0.81149855  0.82809685    -0.18500
C183        C  0.85484952  0.84284051  0.82017122    -0.23300
C184        C  0.87997348  0.86403438  0.84334360     0.27000
C185        C  0.90389738  0.88582890  0.82683227    -0.20100
C186        C  0.92467353  0.91012973  0.84679088    -0.09700
C187        C  0.92171732  0.91413993  0.88407558    -0.10300
C188        C  0.89911377  0.89096200  0.90103268    -0.03200
C189        C  0.87850060  0.86595967  0.88082474    -0.18300
H190        H  0.79684157  0.70578977  0.77459369     0.10700
H191        H  0.83694878  0.73949762  0.81447999     0.10800
H192        H  0.78729723  0.83828928  0.78704216     0.10500
H193        H  0.74628375  0.80528309  0.74874942     0.11600
H194        H  0.84858540  0.79910930  0.85219468     0.11700
H195        H  0.84908166  0.85294645  0.79432050     0.13600
H196        H  0.90577936  0.88485981  0.79810630     0.10100
H197        H  0.94194237  0.92713559  0.83263122     0.12200
H198        H  0.89599087  0.89342931  0.92962468     0.08800
H199        H  0.86004797  0.84974157  0.89439709     0.11600
C200        C  0.54934648  0.56045179  0.85057979    -0.03000
C201        C  0.55180247  0.56699453  0.81419053    -0.05700
C202        C  0.58012217  0.58528556  0.80085512    -0.20700
C203        C  0.60667131  0.59873216  0.82347626     0.25000
C204        C  0.60433985  0.59323611  0.85998387    -0.18300
C205        C  0.57616594  0.57398245  0.87332133    -0.08300
C206        C  0.63685842  0.61680745  0.80735861    -0.18500
C207        C  0.65473672  0.64413230  0.82353331    -0.23300
C208        C  0.68121707  0.66442274  0.80397276     0.27000
C209        C  0.68327908  0.70170877  0.81009190    -0.20100
C210        C  0.70442204  0.72185770  0.78856799    -0.09700
C211        C  0.72387732  0.70532525  0.75994946    -0.10300
C212        C  0.72507942  0.66737317  0.75720571    -0.03200
C213        C  0.70351353  0.64732749  0.77837042    -0.18300
H214        H  0.53189968  0.55699406  0.79564816     0.10700
H215        H  0.58123737  0.58899091  0.77259554     0.10800
H216        H  0.62481725  0.60275572  0.87804591     0.10500
H217        H  0.57632331  0.56951696  0.90108674     0.11600
H218        H  0.64239648  0.60943356  0.77958040     0.11700
H219        H  0.64701970  0.65433776  0.85000252     0.13600
H220        H  0.66710739  0.71550293  0.83035509     0.10100
H221        H  0.70391279  0.75079536  0.79280478     0.12200
H222        H  0.74197423  0.65265613  0.73837130     0.08800
H223        H  0.70402627  0.61837064  0.77440924     0.11600
C224        C  0.04756362  0.91509789  0.00311641    -0.03000
C225        C  0.07833423  0.90151585  0.98621803    -0.05700
C226        C  0.09908955  0.87526098  0.00164041    -0.20700
C227        C  0.09005002  0.86236600  0.03463867     0.25000
C228        C  0.05816799  0.87432759  0.05050512    -0.18300
C229        C  0.03717094  0.90027820  0.03487735    -0.08300
C230        C  0.11461742  0.83688542  0.05176718    -0.18500
C231        C  0.11750265  0.83489370  0.08739455    -0.23300
C232        C  0.14330096  0.81128581  0.10545846     0.27000
C233        C  0.15061732  0.81869097  0.14168141    -0.20100
C234        C  0.17355718  0.79672092  0.16014299    -0.09700
C235        C  0.19058869  0.76663739  0.14303834    -0.10300
C236        C  0.18235811  0.75886776  0.10670998    -0.03200
C237        C  0.15940693  0.78091486  0.08823602    -0.18300
H238        H  0.08722085  0.91229119  0.96180076     0.10700
H239        H  0.12317056  0.86616480  0.98848090     0.10800
H240        H  0.04960746  0.86412681  0.07527071     0.10500
H241        H  0.01368953  0.91007163  0.04870020     0.11600
H242        H  0.13268232  0.82146675  0.03444019     0.11700
H243        H  0.10137951  0.85281326  0.10450206     0.13600
H244        H  0.13821617  0.84148893  0.15598025     0.10100
H245        H  0.17772063  0.80301708  0.18823984     0.12200
H246        H  0.19237053  0.73497407  0.09241529     0.08800
H247        H  0.15349101  0.77321582  0.06078014     0.11600
C248        C  0.42983207  0.56935058  0.08055422    -0.03000
C249        C  0.42643424  0.59717186  0.05711052    -0.05700
C250        C  0.39729557  0.62058969  0.05912132    -0.20700
C251        C  0.37102712  0.61692434  0.08466214     0.25000
C252        C  0.37525231  0.59043987  0.10926906    -0.18300
C253        C  0.40451368  0.56749438  0.10758318    -0.08300
C254        C  0.34120907  0.64303219  0.08753408    -0.18500
C255        C  0.30920830  0.63396455  0.09914687    -0.23300
C256        C  0.28083006  0.66022989  0.10984900     0.27000
C257        C  0.25525547  0.64951249  0.13350030    -0.20100
C258        C  0.23159944  0.67430496  0.14952101    -0.09700
C259        C  0.23192557  0.71089096  0.14163453    -0.10300
C260        C  0.25624741  0.72081141  0.11574259    -0.03200
C261        C  0.28018488  0.69590945  0.09994304    -0.18300
H262        H  0.44681673  0.60213759  0.03823464     0.10700
H263        H  0.39542794  0.64186715  0.04090276     0.10800
H264        H  0.35663302  0.58819593  0.13068044     0.10500
H265        H  0.40753381  0.54830698  0.12780798     0.11600
H266        H  0.34652663  0.67038498  0.08131317     0.11700
H267        H  0.30467249  0.60609493  0.10431767     0.13600
H268        H  0.25518469  0.62221799  0.14173615     0.10100
H269        H  0.21566878  0.66466565  0.17043317     0.12200
H270        H  0.25806384  0.74858801  0.10929551     0.08800
H271        H  0.29881952  0.70516464  0.08103590     0.11600
C272        C  0.56635048  0.86018649  0.54300688    -0.03000
C273        C  0.60092211  0.87321216  0.54418289    -0.05700
C274        C  0.62560212  0.86055859  0.56828979    -0.20700
C275        C  0.61654414  0.83461346  0.59205850     0.25000
C276        C  0.58179589  0.82171581  0.59108321    -0.18300
C277        C  0.55704588  0.83450871  0.56701964    -0.08300
C278        C  0.64457397  0.82063538  0.61590380    -0.18500
C279        C  0.63802063  0.80286608  0.64533938    -0.23300
C280        C  0.66542324  0.78690943  0.66863289     0.27000
C281        C  0.65412460  0.76375489  0.69405340    -0.20100
C282        C  0.67808000  0.74647842  0.71563132    -0.09700
C283        C  0.71477980  0.75224098  0.71345027    -0.10300
C284        C  0.72595678  0.77590682  0.68791183    -0.03200
C285        C  0.70180049  0.79315265  0.66609392    -0.18300
H286        H  0.60896530  0.89323140  0.52638465     0.10700
H287        H  0.65205428  0.87100005  0.56821092     0.10800
H288        H  0.57369817  0.80098036  0.60798543     0.10500
H289        H  0.53088714  0.82338970  0.56640859     0.11600
H290        H  0.67156581  0.82541873  0.60855697     0.11700
H291        H  0.61087778  0.79900309  0.65282203     0.13600
H292        H  0.62641405  0.75794354  0.69652718     0.10100
H293        H  0.66716781  0.72721038  0.73256705     0.12200
H294        H  0.75377155  0.78040027  0.68429894     0.08800
H295        H  0.71200684  0.81095227  0.64718359     0.11600
C296        C  0.40812938  0.85412327  0.35334960    -0.03000
C297        C  0.37393738  0.86895434  0.35496538    -0.05700
C298        C  0.35004365  0.86219036  0.32706983    -0.20700
C299        C  0.35943511  0.83987103  0.29718292     0.25000
C300        C  0.39404627  0.82585985  0.29507170    -0.18300
C301        C  0.41813457  0.83309224  0.32278571    -0.08300
C302        C  0.33224399  0.83107865  0.26936325    -0.18500
C303        C  0.33198932  0.79947657  0.25014735    -0.23300
C304        C  0.30188600  0.78689296  0.22751808     0.27000
C305        C  0.29373000  0.75054505  0.22698627    -0.20100
C306        C  0.26544794  0.73701174  0.20719496    -0.09700
C307        C  0.24434647  0.75903219  0.18617830    -0.10300
C308        C  0.25379516  0.79548840  0.18533329    -0.03200
C309        C  0.28181969  0.80938814  0.20636597    -0.18300
H310        H  0.36566863  0.88582076  0.37786752     0.10700
H311        H  0.32376450  0.87364775  0.32931087     0.10800
H312        H  0.40263354  0.80933951  0.27207132     0.10500
H313        H  0.44435439  0.82149447  0.32080471     0.11600
H314        H  0.30983189  0.84921693  0.26752643     0.11700
H315        H  0.35256806  0.77984623  0.25468891     0.13600
H316        H  0.30884869  0.73251902  0.24275556     0.10100
H317        H  0.25959195  0.70888559  0.20879363     0.12200
H318        H  0.23994209  0.81342566  0.16859750     0.08800
H319        H  0.28822811  0.83747706  0.20553047     0.11600
C320        C  0.74994006  0.18946302  0.71493257    -0.03000
C321        C  0.76664607  0.20915894  0.74321453    -0.05700
C322        C  0.78584351  0.19212807  0.76898688    -0.20700
C323        C  0.78973071  0.15474772  0.76729401     0.25000
C324        C  0.77356426  0.13463867  0.73910278    -0.18300
C325        C  0.75410096  0.15175303  0.71318242    -0.08300
C326        C  0.81325596  0.13858062  0.79382292    -0.18500
C327        C  0.81425732  0.10353483  0.80048855    -0.23300
C328        C  0.83979256  0.08846811  0.82587932     0.27000
C329        C  0.83150390  0.05694093  0.84238569    -0.20100
C330        C  0.85541097  0.04160487  0.86560724    -0.09700
C331        C  0.88841494  0.05717979  0.87232059    -0.10300
C332        C  0.89683764  0.08855124  0.85557191    -0.03200
C333        C  0.87286772  0.10402885  0.83265571    -0.18300
H334        H  0.76500661  0.23817574  0.74518474     0.10700
H335        H  0.79833328  0.20842545  0.79005451     0.10800
H336        H  0.77696417  0.10583740  0.73605229     0.10500
H337        H  0.74365167  0.13525476  0.69121302     0.11600
H338        H  0.83025034  0.15688885  0.80909644     0.11700
H339        H  0.79530028  0.08536878  0.78791176     0.13600
H340        H  0.80644620  0.04412839  0.83727964     0.10100
H341        H  0.84837726  0.01710953  0.87766989     0.12200
H342        H  0.92221990  0.10095347  0.85983642     0.08800
H343        H  0.88084054  0.12757277  0.81954407     0.11600
C344        C  0.55339754  0.41445716  0.81020158    -0.03000
C345        C  0.54657948  0.38038550  0.82230643    -0.05700
C346        C  0.56633414  0.35047486  0.80968823    -0.20700
C347        C  0.59291577  0.35392490  0.78441631     0.25000
C348        C  0.60025992  0.38817737  0.77291183    -0.18300
C349        C  0.58064081  0.41805118  0.78562736    -0.08300
C350        C  0.61335438  0.32160419  0.77160052    -0.18500
C351        C  0.62904274  0.31876446  0.73954945    -0.23300
C352        C  0.65173347  0.28803674  0.72656523     0.27000
C353        C  0.66144154  0.28568788  0.69068571    -0.20100
C354        C  0.68565126  0.25976315  0.67785632    -0.09700
C355        C  0.70209646  0.23608962  0.70080141    -0.10300
C356        C  0.68987852  0.23656383  0.73616428    -0.03200
C357        C  0.66551330  0.26253430  0.74901568    -0.18300
H358        H  0.52625430  0.37689038  0.84179347     0.10700
H359        H  0.56061668  0.32449224  0.81943340     0.10800
H360        H  0.62142183  0.39217904  0.75448586     0.10500
H361        H  0.58648444  0.44397366  0.77586970     0.11600
H362        H  0.61431033  0.29936102  0.78874789     0.11700
H363        H  0.62506992  0.34007807  0.72155197     0.13600
H364        H  0.65087348  0.30455815  0.67257845     0.10100
H365        H  0.69306757  0.25937360  0.65011292     0.12200
H366        H  0.69920773  0.21730723  0.75436739     0.08800
H367        H  0.65857674  0.26293932  0.77679790     0.11600
C368        C  0.76844666  0.83062792  0.20555627    -0.03000
C369        C  0.80405409  0.82173422  0.19818995    -0.05700
C370        C  0.82361937  0.84112806  0.17478002    -0.20700
C371        C  0.80825352  0.86947085  0.15729698     0.25000
C372        C  0.77260675  0.87798574  0.16369536    -0.18300
C373        C  0.75291527  0.85831836  0.18676686    -0.08300
C374        C  0.83048416  0.88956778  0.13306827    -0.18500
C375        C  0.81744763  0.91011175  0.10781230    -0.23300
C376        C  0.83983307  0.92950328  0.08318370     0.27000
C377        C  0.82526541  0.93948676  0.05092748    -0.20100
C378        C  0.84552016  0.95707107  0.02659968    -0.09700
C379        C  0.88078746  0.96534145  0.03417323    -0.10300
C380        C  0.89508993  0.95638317  0.06694577    -0.03200
C381        C  0.87485176  0.93876454  0.09124840    -0.18300
H382        H  0.81695977  0.79912476  0.20945557     0.10700
H383        H  0.85086903  0.83354707  0.16990440     0.10800
H384        H  0.75966951  0.89992104  0.15128482     0.10500
H385        H  0.72528344  0.86497172  0.19027338     0.11600
H386        H  0.85873213  0.88577305  0.13521742     0.11700
H387        H  0.78927921  0.91139430  0.10342870     0.13600
H388        H  0.79824217  0.93311088  0.04423865     0.10100
H389        H  0.83366346  0.96378500  0.00167673     0.12200
H390        H  0.92209758  0.96268276  0.07374037     0.08800
H391        H  0.88673895  0.93281395  0.11633490     0.11600
C392        C  0.55373889  0.61636279  0.14091440    -0.03000
C393        C  0.53944101  0.64827064  0.15680192    -0.05700
C394        C  0.56056154  0.67821664  0.16364791    -0.20700
C395        C  0.59629542  0.67707562  0.15440079     0.25000
C396        C  0.61069985  0.64515871  0.13856069    -0.18300
C397        C  0.58960862  0.61519113  0.13179454    -0.08300
C398        C  0.61819989  0.70864956  0.16425163    -0.18500
C399        C  0.64880368  0.71570813  0.14824939    -0.23300
C400        C  0.67265406  0.74409885  0.16271914     0.27000
C401        C  0.70908160  0.73942120  0.15854137    -0.20100
C402        C  0.73229835  0.76197781  0.17774986    -0.09700
C403        C  0.71945730  0.78864761  0.20274461    -0.10300
C404        C  0.68304611  0.79675877  0.20195198    -0.03200
C405        C  0.65993941  0.77450813  0.18255712    -0.18300
H406        H  0.51199651  0.64987810  0.16437682     0.10700
H407        H  0.54897848  0.70234639  0.17634485     0.10800
H408        H  0.63836190  0.64282614  0.13208952     0.10500
H409        H  0.60144549  0.59128618  0.11906669     0.11600
H410        H  0.60907846  0.72593221  0.18662108     0.11700
H411        H  0.65820379  0.69834040  0.12607552     0.13600
H412        H  0.71959470  0.71699220  0.14214689     0.10100
H413        H  0.76028482  0.75655239  0.17554642     0.12200
H414        H  0.67187691  0.81965344  0.21703941     0.08800
H415        H  0.63207761  0.78070420  0.18395562     0.11600
C416        C  0.72444671  0.83073153  0.25829218    -0.03000
C417        C  0.70104581  0.81241007  0.27975627    -0.05700
C418        C  0.68002001  0.83074371  0.30503052    -0.20700
C419        C  0.68186282  0.86794259  0.31010516     0.25000
C420        C  0.70628458  0.88666480  0.29080041    -0.18300
C421        C  0.72790488  0.86815937  0.26548763    -0.08300
C422        C  0.65845167  0.88585514  0.33675107    -0.18500
C423        C  0.62605726  0.89679138  0.32760422    -0.23300
C424        C  0.59695138  0.89912036  0.35371893     0.27000
C425        C  0.57024675  0.92514500  0.35171958    -0.20100
C426        C  0.54185425  0.92598719  0.37548912    -0.09700
C427        C  0.53986437  0.90098591  0.40195947    -0.10300
C428        C  0.56496757  0.87292133  0.40113291    -0.03200
C429        C  0.59358295  0.87254404  0.37816740    -0.18300
H430        H  0.69815465  0.78363241  0.27601616     0.10700
H431        H  0.66176195  0.81586124  0.32034225     0.10800
H432        H  0.70871936  0.91542223  0.29544116     0.10500
H433        H  0.74711757  0.88338721  0.25195443     0.11600
H434        H  0.66452456  0.88214483  0.36446675     0.11700
H435        H  0.61985884  0.90028155  0.29985567     0.13600
H436        H  0.57120432  0.94458288  0.33157218     0.10100
H437        H  0.52093220  0.94519099  0.37188519     0.12200
H438        H  0.56238741  0.85079690  0.41813773     0.08800
H439        H  0.61237574  0.85053924  0.37860565     0.11600
C440        C  0.76139961  0.70630097  0.70288857    -0.03000
C441        C  0.74087754  0.68404138  0.67959832    -0.05700
C442        C  0.75600007  0.66328713  0.65150195    -0.20700
C443        C  0.79227159  0.66407068  0.64497141     0.25000
C444        C  0.81303996  0.68710464  0.66698495    -0.18300
C445        C  0.79779235  0.70820644  0.69523185    -0.08300
C446        C  0.80638146  0.64033614  0.61479814    -0.18500
C447        C  0.84069249  0.63279571  0.60780843    -0.23300
C448        C  0.85177744  0.60559235  0.57903301     0.27000
C449        C  0.88450824  0.60810220  0.56194577    -0.20100
C450        C  0.89464993  0.58297821  0.53428898    -0.09700
C451        C  0.87244209  0.55440213  0.52365958    -0.10300
C452        C  0.83995050  0.55204986  0.54124344    -0.03200
C453        C  0.83009016  0.57662941  0.56875333    -0.18300
H454        H  0.71275194  0.68235394  0.68353620     0.10700
H455        H  0.73908445  0.64621352  0.63486285     0.10800
H456        H  0.84093095  0.68942275  0.66232138     0.10500
H457        H  0.81481461  0.72627817  0.71042155     0.11600
H458        H  0.78670334  0.62752374  0.59761885     0.11700
H459        H  0.86115394  0.64638884  0.62326274     0.13600
H460        H  0.90182632  0.63011500  0.56934453     0.10100
H461        H  0.91898044  0.58701194  0.52049945     0.12200
H462        H  0.82165098  0.53105564  0.53329847     0.08800
H463        H  0.80532455  0.57260851  0.58190274     0.11600
C464        C  0.76174680  0.23180607  0.66944540    -0.03000
C465        C  0.78844916  0.21377153  0.64905808    -0.05700
C466        C  0.81289766  0.23301362  0.63023750    -0.20700
C467        C  0.81297318  0.27062293  0.63349688     0.25000
C468        C  0.78964187  0.28840562  0.65762719    -0.18300
C469        C  0.76489262  0.26931897  0.67571406    -0.08300
C470        C  0.83395515  0.29103950  0.60853219    -0.18500
C471        C  0.84364708  0.32519455  0.61628429    -0.23300
C472        C  0.85429452  0.35038258  0.58934070     0.27000
C473        C  0.87025119  0.38263411  0.60107086    -0.20100
C474        C  0.87558855  0.40972591  0.57774608    -0.09700
C475        C  0.86476343  0.40536333  0.54206680    -0.10300
C476        C  0.84979360  0.37257105  0.53001710    -0.03200
C477        C  0.84457618  0.34539077  0.55334558    -0.18300
H478        H  0.78857394  0.18477882  0.64551525     0.10700
H479        H  0.83102941  0.21856737  0.61227685     0.10800
H480        H  0.78890492  0.31735499  0.66124907     0.10500
H481        H  0.74785906  0.28454514  0.69407501     0.11600
H482        H  0.83911768  0.27841555  0.58234349     0.11700
H483        H  0.84151229  0.33620660  0.64353279     0.13600
H484        H  0.87775605  0.38730403  0.62868903     0.10100
H485        H  0.88780820  0.43425943  0.58787932     0.12200
H486        H  0.84067395  0.36842623  0.50289703     0.08800
H487        H  0.83124022  0.32141687  0.54341004     0.11600
C488        C  0.76704151  0.78160252  0.25074496    -0.03000
C489        C  0.79328719  0.79498611  0.27450533    -0.05700
C490        C  0.81103536  0.77247255  0.29715000    -0.20700
C491        C  0.80299643  0.73597424  0.29680765     0.20400
C492        C  0.77645692  0.72255726  0.27397803    -0.18300
C493        C  0.75853309  0.74494422  0.25170656    -0.08300
C494        C  0.81962653  0.71271716  0.32276461    -0.18500
C495        C  0.82483766  0.67740674  0.31505513    -0.23300
C496        C  0.83353384  0.65107786  0.34171690     0.27000
C497        C  0.84700875  0.61744274  0.32967436    -0.20100
C498        C  0.85077191  0.58989127  0.35284037    -0.09700
C499        C  0.84057477  0.59511721  0.38868970    -0.10300
C500        C  0.82800999  0.62924351  0.40097416    -0.03200
C501        C  0.82457057  0.65695713  0.37779596    -0.18300
H502        H  0.79955919  0.82323746  0.27589285     0.10700
H503        H  0.83074096  0.78365747  0.31526750     0.10800
H504        H  0.76814543  0.69498544  0.27455909     0.10500
H505        H  0.73667327  0.73337570  0.23698439     0.11600
H506        H  0.82649844  0.72466035  0.34878966     0.11700
H507        H  0.82100198  0.66679581  0.28784872     0.13600
H508        H  0.85398659  0.61220283  0.30197591     0.10100
H509        H  0.86148149  0.56451803  0.34232934     0.12200
H510        H  0.81961342  0.63423396  0.42824172     0.08800
H511        H  0.81322189  0.68224498  0.38787771     0.11600
C512        C  0.21393150  0.25348500  0.78827076    -0.03000
C513        C  0.21868932  0.25182867  0.82537454    -0.05700
C514        C  0.19561950  0.23256239  0.84583246    -0.20700
C515        C  0.16741864  0.21355942  0.83011178     0.25000
C516        C  0.16356320  0.21342646  0.79295637    -0.18300
C517        C  0.18654146  0.23275917  0.77250407    -0.08300
C518        C  0.14432178  0.19229162  0.85299806    -0.18500
C519        C  0.11193283  0.18074026  0.84325596    -0.23300
C520        C  0.08962415  0.15641772  0.86378012     0.27000
C521        C  0.06064692  0.14034185  0.84632263    -0.20100
C522        C  0.04045103  0.11501317  0.86264371    -0.09700
C523        C  0.04828456  0.10519368  0.89722850    -0.10300
C524        C  0.07603215  0.12260342  0.91567890    -0.03200
C525        C  0.09657272  0.14790083  0.89914639    -0.18300
H526        H  0.24046077  0.26473669  0.83909479     0.10700
H527        H  0.20006537  0.23228191  0.87420583     0.10800
H528        H  0.14339825  0.19780918  0.77925494     0.10500
H529        H  0.18270870  0.23184793  0.74399283     0.11600
H530        H  0.15491128  0.18578990  0.87855656     0.11700
H531        H  0.10135945  0.18828278  0.81799351     0.13600
H532        H  0.05426942  0.14644477  0.81930204     0.10100
H533        H  0.01922946  0.10222235  0.84765274     0.12200
H534        H  0.08288662  0.11547333  0.94227176     0.08800
H535        H  0.11804802  0.16009538  0.91406432     0.11600
C536        C  0.26775907  0.29574438  0.78571913    -0.03000
C537        C  0.30375155  0.29316193  0.77602310    -0.05700
C538        C  0.32847079  0.31686306  0.79085479    -0.20700
C539        C  0.31857249  0.34444987  0.81562617     0.25000
C540        C  0.28328275  0.34709313  0.82653529    -0.18300
C541        C  0.25823212  0.32332833  0.81150963    -0.08300
C542        C  0.34496367  0.37236147  0.82522422    -0.18500
C543        C  0.34469284  0.39400119  0.85506870    -0.23300
C544        C  0.37199908  0.42184393  0.86065989     0.27000
C545        C  0.39116996  0.42489804  0.89245239    -0.20100
C546        C  0.41953079  0.44853827  0.89619359    -0.09700
C547        C  0.42817750  0.47104410  0.86887153    -0.10300
C548        C  0.40838116  0.46781547  0.83718717    -0.03200
C549        C  0.38064344  0.44383059  0.83320950    -0.18300
H550        H  0.31325409  0.27497214  0.75483714     0.10700
H551        H  0.35538504  0.31468709  0.78145361     0.10800
H552        H  0.27456611  0.36874443  0.84493208     0.10500
H553        H  0.23087709  0.32749109  0.81878473     0.11600
H554        H  0.36643586  0.37493929  0.80655651     0.11700
H555        H  0.32581839  0.39011863  0.87601160     0.13600
H556        H  0.38549990  0.40748328  0.91360923     0.10100
H557        H  0.43559760  0.44699332  0.91949922     0.12200
H558        H  0.41508911  0.48328642  0.81484164     0.08800
H559        H  0.36631045  0.44195125  0.80831513     0.11600
C560        C  0.77111739  0.26080091  0.16188470    -0.03000
C561        C  0.75493994  0.24252655  0.13238111    -0.05700
C562        C  0.77430408  0.22038044  0.10801450    -0.20700
C563        C  0.81062325  0.21471033  0.11235879     0.25000
C564        C  0.82695177  0.23180037  0.14231023    -0.18300
C565        C  0.80754473  0.25418440  0.16671826    -0.08300
C566        C  0.82943384  0.18915909  0.08613560    -0.18500
C567        C  0.86484821  0.18501420  0.08333971    -0.23300
C568        C  0.88344972  0.15792524  0.05840285     0.27000
C569        C  0.91982241  0.15217645  0.06291084    -0.20100
C570        C  0.93814648  0.12551877  0.04225490    -0.09700
C571        C  0.92075416  0.10387155  0.01604609    -0.10300
C572        C  0.88475104  0.11074733  0.01020643    -0.03200
C573        C  0.86633619  0.13732622  0.03101626    -0.18300
H574        H  0.72690649  0.24559549  0.12810621     0.10700
H575        H  0.76059958  0.20726239  0.08570600     0.10800
H576        H  0.85450648  0.22728077  0.14778993     0.10500
H577        H  0.82133128  0.26518289  0.18985924     0.11600
H578        H  0.81273631  0.17284686  0.06855824     0.11700
H579        H  0.88148672  0.20159677  0.10077351     0.13600
H580        H  0.93402684  0.16762432  0.08340258     0.10100
H581        H  0.96575632  0.12096620  0.04778601     0.12200
H582        H  0.87033488  0.09447524  0.99051745     0.08800
H583        H  0.83865657  0.14100977  0.02566878     0.11600
C584        C  0.72829061  0.31535631  0.17100420    -0.03000
C585        C  0.73264767  0.32334223  0.13502258    -0.05700
C586        C  0.71179702  0.34975972  0.11981147    -0.20700
C587        C  0.68650434  0.36952235  0.14007892     0.25000
C588        C  0.68485567  0.36451889  0.17671309    -0.18300
C589        C  0.70553571  0.33822822  0.19186003    -0.08300
C590        C  0.66212654  0.39503973  0.12266992    -0.18500
C591        C  0.62938986  0.40221437  0.13530344    -0.23300
C592        C  0.60261497  0.42713587  0.12070535     0.27000
C593        C  0.57200069  0.43376218  0.14079430    -0.20100
C594        C  0.54547360  0.45637266  0.12936134    -0.09700
C595        C  0.54793233  0.47288509  0.09690030    -0.10300
C596        C  0.57902337  0.46707939  0.07688023    -0.03200
C597        C  0.60602914  0.44423616  0.08852645    -0.18300
H598        H  0.75181444  0.30927894  0.11812777     0.10700
H599        H  0.71483640  0.35410994  0.09184276     0.10800
H600        H  0.66741781  0.38072601  0.19390614     0.10500
H601        H  0.70260526  0.33463308  0.21997818     0.11600
H602        H  0.67085034  0.40664341  0.09858034     0.11700
H603        H  0.62107753  0.38852019  0.15838247     0.13600
H604        H  0.56857099  0.42155631  0.16588605     0.10100
H605        H  0.52271244  0.46121399  0.14629109     0.12200
H606        H  0.58323085  0.48079953  0.05293536     0.08800
H607        H  0.62936530  0.44027987  0.07236777     0.11600
C608        C  0.76962283  0.30289858  0.21975594    -0.03000
C609        C  0.76113249  0.29965107  0.25596391    -0.05700
C610        C  0.77971699  0.31790274  0.28316881    -0.20700
C611        C  0.80673994  0.34144591  0.27585456     0.25000
C612        C  0.81482123  0.34632754  0.24004763    -0.18300
C613        C  0.79631436  0.32754406  0.21248025    -0.08300
C614        C  0.82428493  0.36047370  0.30699573    -0.18500
C615        C  0.84463761  0.38983109  0.30631944    -0.23300
C616        C  0.85581917  0.41036880  0.33976058     0.27000
C617        C  0.88604003  0.43179404  0.34030971    -0.20100
C618        C  0.89535843  0.45298353  0.37102525    -0.09700
C619        C  0.87460338  0.45315869  0.40196515    -0.10300
C620        C  0.84391967  0.43237300  0.40071235    -0.03200
C621        C  0.83486931  0.41116736  0.37047768    -0.18300
H622        H  0.73920054  0.28411466  0.26413711     0.10700
H623        H  0.77209218  0.31424842  0.31038891     0.10800
H624        H  0.83529416  0.36445793  0.23312144     0.10500
H625        H  0.80281128  0.33223638  0.18521313     0.11600
H626        H  0.81852144  0.35023902  0.33265862     0.11700
H627        H  0.85234607  0.39989900  0.28114406     0.13600
H628        H  0.90208273  0.43268804  0.31668649     0.10100
H629        H  0.91765298  0.47049078  0.36974656     0.12200
H630        H  0.82586534  0.43357338  0.42293561     0.08800
H631        H  0.81030366  0.39691262  0.37085520     0.11600
C632        C  0.71197099  0.18599962  0.65737618    -0.03000
C633        C  0.71621143  0.18937528  0.62047399    -0.05700
C634        C  0.69398164  0.17196487  0.59578976    -0.20700
C635        C  0.66570264  0.15173483  0.60672936     0.25000
C636        C  0.66144811  0.14725275  0.64322504    -0.18300
C637        C  0.68425057  0.16415856  0.66810619    -0.08300
C638        C  0.64036347  0.13852412  0.57893497    -0.18500
C639        C  0.60669736  0.12983729  0.58495819    -0.23300
C640        C  0.58091940  0.12524907  0.55533880     0.27000
C641        C  0.55286164  0.10152963  0.55759880    -0.20100
C642        C  0.52770899  0.09826034  0.53036807    -0.09700
C643        C  0.53010403  0.11847089  0.50002051    -0.10300
C644        C  0.55679913  0.14419204  0.49953387    -0.03200
C645        C  0.58228079  0.14692729  0.52621484    -0.18300
H646        H  0.73491924  0.20738853  0.60998068     0.10700
H647        H  0.69768258  0.17625410  0.56787011     0.10800
H648        H  0.64022721  0.13146756  0.65281068     0.10500
H649        H  0.67930405  0.16153041  0.69610653     0.11600
H650        H  0.64899755  0.13927821  0.55152768     0.11700
H651        H  0.59715650  0.12769839  0.61182152     0.13600
H652        H  0.55022473  0.08575733  0.58060634     0.10100
H653        H  0.50565957  0.08081749  0.53380031     0.12200
H654        H  0.55727642  0.16365304  0.47955054     0.08800
H655        H  0.60205231  0.16740101  0.52486032     0.11600
C656        C  0.39409827  0.15749274  0.54451317    -0.03000
C657        C  0.35814125  0.15024184  0.53910697    -0.05700
C658        C  0.33375917  0.15679635  0.56648564    -0.20700
C659        C  0.34445068  0.17027257  0.60027201     0.25000
C660        C  0.38048149  0.17661786  0.60623414    -0.18300
C661        C  0.40496663  0.17030449  0.57867173    -0.08300
C662        C  0.31677215  0.18074685  0.62701896    -0.18500
C663        C  0.32249059  0.18623344  0.66226449    -0.23300
C664        C  0.29573003  0.20306058  0.68722561     0.27000
C665        C  0.29867448  0.19869617  0.72386541    -0.20100
C666        C  0.27767883  0.21918603  0.74827784    -0.09700
C667        C  0.25487946  0.24635977  0.73678100    -0.10300
C668        C  0.24884190  0.24696807  0.69977593    -0.03200
C669        C  0.26939077  0.22629562  0.67548609    -0.18300
H670        H  0.34846073  0.13964014  0.51369428     0.10700
H671        H  0.30620614  0.15176694  0.56104123     0.10800
H672        H  0.38974771  0.18787918  0.63160886     0.10500
H673        H  0.43224098  0.17665245  0.58387749     0.11600
H674        H  0.29037357  0.18451677  0.61677857     0.11700
H675        H  0.34791801  0.17930916  0.67325368     0.13600
H676        H  0.31823434  0.18043465  0.73373124     0.10100
H677        H  0.28173209  0.21632872  0.77641356     0.12200
H678        H  0.22922986  0.26440744  0.68892964     0.08800
H679        H  0.26571323  0.23036222  0.64757120     0.11600
C680        C  0.55217451  0.15764762  0.35427638    -0.03000
C681        C  0.53876785  0.18025804  0.32883044    -0.05700
C682        C  0.56079312  0.19410903  0.30344584    -0.20700
C683        C  0.59689418  0.18560721  0.30230108     0.25000
C684        C  0.61037476  0.16227994  0.32722251    -0.18300
C685        C  0.58826575  0.14854449  0.35290680    -0.08300
C686        C  0.61936748  0.20378848  0.27632541    -0.18500
C687        C  0.65219894  0.19317305  0.26618945    -0.23300
C688        C  0.67498557  0.21357984  0.24215559     0.27000
C689        C  0.71146029  0.20713927  0.24200989    -0.20100
C690        C  0.73412687  0.22809832  0.22281667    -0.09700
C691        C  0.72121684  0.25708424  0.20388739    -0.10300
C692        C  0.68422395  0.26021886  0.20044944    -0.03200
C693        C  0.66156082  0.23926227  0.21967643    -0.18300
H694        H  0.51133795  0.18833864  0.32922670     0.10700
H695        H  0.54956680  0.21211598  0.28486817     0.10800
H696        H  0.63806536  0.15540683  0.32782593     0.10500
H697        H  0.59951133  0.13099789  0.37184748     0.11600
H698        H  0.60803366  0.22761433  0.26559609     0.11700
H699        H  0.66370563  0.16947342  0.27703954     0.13600
H700        H  0.72269080  0.18671093  0.25797542     0.10100
H701        H  0.76220334  0.22337937  0.22486654     0.12200
H702        H  0.67222536  0.27912611  0.18341586     0.08800
H703        H  0.63355559  0.24346900  0.21673149     0.11600
C704        C  0.20477611  0.80003761  0.70494861    -0.03000
C705        C  0.18006542  0.78364273  0.72653706    -0.05700
C706        C  0.15985631  0.80370867  0.75160341    -0.20700
C707        C  0.16428902  0.84080066  0.75700058     0.25000
C708        C  0.18963831  0.85742336  0.73665657    -0.18300
C709        C  0.20987247  0.83731312  0.71133910    -0.08300
C710        C  0.14081948  0.86111795  0.78289135    -0.18500
C711        C  0.14832283  0.89349242  0.79877994    -0.23300
C712        C  0.12352630  0.91379707  0.82344206     0.27000
C713        C  0.13662775  0.93973671  0.84852208    -0.20100
C714        C  0.11374221  0.96034845  0.87098133    -0.09700
C715        C  0.07719507  0.95563082  0.86853852    -0.10300
C716        C  0.06418936  0.92953208  0.84351414    -0.03200
C717        C  0.08694043  0.90905270  0.82119395    -0.18300
H718        H  0.17609870  0.75495256  0.72359416     0.10700
H719        H  0.14068937  0.79007467  0.76698370     0.10800
H720        H  0.19370272  0.88603889  0.73982207     0.10500
H721        H  0.22982074  0.85129505  0.69751721     0.11600
H722        H  0.11672718  0.84800882  0.78995906     0.11700
H723        H  0.17380359  0.90523984  0.79448948     0.13600
H724        H  0.16467401  0.94414434  0.85065828     0.10100
H725        H  0.12460136  0.98018917  0.88993084     0.12200
H726        H  0.03617416  0.92525359  0.84065151     0.08800
H727        H  0.07555120  0.89029806  0.80155397     0.11600
C728        C  0.24777290  0.75070894  0.70275446    -0.03000
C729        C  0.24137048  0.71352585  0.70344159    -0.05700
C730        C  0.26130866  0.69190343  0.72505741    -0.20700
C731        C  0.28802756  0.70658824  0.74679085     0.25000
C732        C  0.29283378  0.74384345  0.74849328    -0.18300
C733        C  0.27247276  0.76561299  0.72737457    -0.08300
C734        C  0.31005073  0.68233726  0.76761240    -0.18500
C735        C  0.34420282  0.68860733  0.77494698    -0.23300
C736        C  0.36730160  0.66269556  0.79266832     0.27000
C737        C  0.40350044  0.66213605  0.78544143    -0.20100
C738        C  0.42583080  0.63709602  0.80044852    -0.09700
C739        C  0.41247836  0.61227002  0.82343882    -0.10300
C740        C  0.37638748  0.61383460  0.83170844    -0.03200
C741        C  0.35405686  0.63870701  0.81652087    -0.18300
H742        H  0.22074888  0.70072126  0.68776619     0.10700
H743        H  0.25623211  0.66339009  0.72430104     0.10800
H744        H  0.31213773  0.75625927  0.76626779     0.10500
H745        H  0.27687840  0.79425276  0.72922650     0.11600
H746        H  0.29863676  0.65707027  0.77414453     0.11700
H747        H  0.35644733  0.71215942  0.76507351     0.13600
H748        H  0.41440912  0.68053861  0.76737051     0.10100
H749        H  0.45335076  0.63662007  0.79321442     0.12200
H750        H  0.36530614  0.59589446  0.85004836     0.08800
H751        H  0.32652558  0.63923790  0.82377303     0.11600
C752        C  0.25262719  0.79739500  0.65552779    -0.03000
C753        C  0.23912578  0.82365589  0.63349630    -0.05700
C754        C  0.26120857  0.84204584  0.61117528    -0.20700
C755        C  0.29731986  0.83390548  0.60909882     0.25000
C756        C  0.31089192  0.80744184  0.63048206    -0.18300
C757        C  0.28896146  0.78904822  0.65254304    -0.08300
C758        C  0.32027433  0.85298565  0.58435886    -0.18500
C759        C  0.34995276  0.83774803  0.57044889    -0.23300
C760        C  0.37474924  0.85416569  0.54564413     0.27000
C761        C  0.40127965  0.83184973  0.53057123    -0.20100
C762        C  0.42605424  0.84501128  0.50783165    -0.09700
C763        C  0.42578894  0.88125426  0.49943385    -0.10300
C764        C  0.39887522  0.90377459  0.51410010    -0.03200
C765        C  0.37366622  0.89043131  0.53713864    -0.18300
H766        H  0.21123694  0.82994503  0.63365559     0.10700
H767        H  0.24988810  0.86216773  0.59490567     0.10800
H768        H  0.33862259  0.80063014  0.63042579     0.10500
H769        H  0.30098004  0.76751056  0.66627333     0.11600
H770        H  0.31164895  0.87912339  0.57647975     0.11700
H771        H  0.35629104  0.81041927  0.57662987     0.13600
H772        H  0.40295727  0.80381891  0.53637907     0.10100
H773        H  0.44591213  0.82656783  0.49668395     0.12200
H774        H  0.39669358  0.93136582  0.50787619     0.08800
H775        H  0.35370782  0.90864372  0.54826926     0.11600
C776        C  0.11851797  0.43518334  0.56713003    -0.03000
C777        C  0.10856012  0.39906892  0.56829790    -0.05700
C778        C  0.11450656  0.38026367  0.59887256    -0.20700
C779        C  0.13072484  0.39692914  0.62890454     0.25000
C780        C  0.13870945  0.43354457  0.62859358    -0.18300
C781        C  0.13288804  0.45230617  0.59810827    -0.08300
C782        C  0.14091479  0.37499932  0.65913502    -0.18500
C783        C  0.16979407  0.38218191  0.67895848    -0.23300
C784        C  0.18552305  0.35638899  0.70302428     0.27000
C785        C  0.22207333  0.35218713  0.70302397    -0.20100
C786        C  0.23821195  0.32653323  0.72306146    -0.09700
C787        C  0.21847060  0.30440763  0.74458603    -0.10300
C788        C  0.18173209  0.31101188  0.74669976    -0.03200
C789        C  0.16539583  0.33606161  0.72545572    -0.18300
H790        H  0.09673510  0.38497106  0.54549905     0.10700
H791        H  0.10765977  0.35218877  0.59854866     0.10800
H792        H  0.15012577  0.44768913  0.65163832     0.10500
H793        H  0.14100222  0.47995488  0.59859147     0.11600
H794        H  0.12728554  0.34996664  0.66210206     0.11700
H795        H  0.18566160  0.40513760  0.67342417     0.13600
H796        H  0.23821649  0.36790282  0.68630925     0.10100
H797        H  0.26644650  0.32311287  0.72081595     0.12200
H798        H  0.16517042  0.29694433  0.76425239     0.08800
H799        H  0.13712702  0.33979145  0.72681172     0.11600
C800        C  0.18685434  0.72567739  0.19208517    -0.03000
C801        C  0.16073581  0.70097910  0.18049149    -0.05700
C802        C  0.14210913  0.68177062  0.20512286    -0.20700
C803        C  0.14708788  0.68916932  0.24178421     0.25000
C804        C  0.16823871  0.71798046  0.25315113    -0.18300
C805        C  0.18770172  0.73609444  0.22879272    -0.08300
C806        C  0.13217273  0.66690745  0.26922953    -0.18500
C807        C  0.13229637  0.63075186  0.26586850    -0.23300
C808        C  0.12677479  0.60790858  0.29652311     0.27000
C809        C  0.14118529  0.57299121  0.29508124    -0.20100
C810        C  0.13935222  0.55184947  0.32450134    -0.09700
C811        C  0.12305564  0.56517879  0.35608810    -0.10300
C812        C  0.10733676  0.59952721  0.35702954    -0.03200
C813        C  0.10895027  0.62053958  0.32760326    -0.18300
H814        H  0.15720549  0.69417006  0.15238513     0.10700
H815        H  0.12452404  0.66072653  0.19558685     0.10800
H816        H  0.17125089  0.72530782  0.28123574     0.10500
H817        H  0.20416577  0.75763102  0.23927202     0.11600
H818        H  0.12683214  0.68046069  0.29493973     0.11700
H819        H  0.14106679  0.61751918  0.24091493     0.13600
H820        H  0.15487502  0.56241303  0.27146814     0.10100
H821        H  0.15164334  0.52550843  0.32297511     0.12200
H822        H  0.09360775  0.61019143  0.38053799     0.08800
H823        H  0.09622126  0.64662619  0.32948331     0.11600
C824        C  0.11229621  0.56475959  0.50313983    -0.03000
C825        C  0.14865291  0.56895653  0.50927375    -0.05700
C826        C  0.16143256  0.59649257  0.53176506    -0.20700
C827        C  0.13858332  0.62168786  0.54847254     0.25000
C828        C  0.10217702  0.61898341  0.54174093    -0.18300
C829        C  0.08907178  0.59051424  0.51930602    -0.08300
C830        C  0.15474970  0.64863631  0.57382329    -0.18500
C831        C  0.14303053  0.68244556  0.58092637    -0.23300
C832        C  0.16423088  0.70852682  0.60329603     0.27000
C833        C  0.14753146  0.73564038  0.62463744    -0.20100
C834        C  0.16713848  0.75847504  0.64782473    -0.09700
C835        C  0.20408744  0.75420181  0.65083652    -0.10300
C836        C  0.22071645  0.72925171  0.62653214    -0.03200
C837        C  0.20121183  0.70674189  0.60334986    -0.18300
H838        H  0.16748097  0.54991738  0.49719383     0.10700
H839        H  0.18955768  0.59795146  0.53629246     0.10800
H840        H  0.08386697  0.63800519  0.55460020     0.10500
H841        H  0.06113109  0.58871240  0.51534490     0.11600
H842        H  0.17939261  0.64044782  0.58572735     0.11700
H843        H  0.11794428  0.69109356  0.57035575     0.13600
H844        H  0.11916446  0.73864495  0.62398329     0.10100
H845        H  0.15293320  0.77911873  0.66335571     0.12200
H846        H  0.24908200  0.72618193  0.62652993     0.08800
H847        H  0.21530618  0.68776327  0.58562098     0.11600
C848        C  0.08786258  0.05636113  0.03846785    -0.03000
C849        C  0.07722113  0.05604033  0.07413325    -0.05700
C850        C  0.09503781  0.07614476  0.10081746    -0.20700
C851        C  0.12337320  0.09775672  0.09246272     0.25000
C852        C  0.13476049  0.09742470  0.05691231    -0.18300
C853        C  0.11727193  0.07671103  0.03018540    -0.08300
C854        C  0.14038947  0.12000887  0.12158975    -0.18500
C855        C  0.15393841  0.15258614  0.11700991    -0.23300
C856        C  0.16867285  0.17616603  0.14661721     0.27000
C857        C  0.16854236  0.21339294  0.14359127    -0.20100
C858        C  0.18318094  0.23632923  0.17025526    -0.09700
C859        C  0.20003456  0.22271543  0.20013505    -0.10300
C860        C  0.19816589  0.18533669  0.20391524    -0.03200
C861        C  0.18328195  0.16242444  0.17734796    -0.18300
H862        H  0.05475246  0.04053440  0.08140261     0.10700
H863        H  0.08597918  0.07562825  0.12800753     0.10800
H864        H  0.15711235  0.11311364  0.04974267     0.10500
H865        H  0.12602626  0.07753472  0.00293132     0.11600
H866        H  0.13880813  0.11052001  0.14817606     0.11700
H867        H  0.15220804  0.16344146  0.09096672     0.13600
H868        H  0.15702430  0.22483725  0.12045989     0.10100
H869        H  0.18259955  0.26490479  0.16686628     0.12200
H870        H  0.20808388  0.17329937  0.22733507     0.08800
H871        H  0.18390944  0.13388894  0.18078992     0.11600
C872        C  0.24621400  0.27261366  0.21070497    -0.03000
C873        C  0.26173137  0.30056035  0.23206383    -0.05700
C874        C  0.28530720  0.32408660  0.21784815    -0.20700
C875        C  0.29562303  0.31956842  0.18223525     0.25000
C876        C  0.28245817  0.29032856  0.16124440    -0.18300
C877        C  0.25841181  0.26691059  0.17538382    -0.08300
C878        C  0.31872757  0.34695001  0.16782012    -0.18500
C879        C  0.33977009  0.34091568  0.13934653    -0.23300
C880        C  0.36261880  0.36930662  0.12642548     0.27000
C881        C  0.39567943  0.36002368  0.11195906    -0.20100
C882        C  0.41825044  0.38655520  0.10103417    -0.09700
C883        C  0.40801574  0.42297141  0.10396937    -0.10300
C884        C  0.37427711  0.43196314  0.11735018    -0.03200
C885        C  0.35184696  0.40548772  0.12832535    -0.18300
H886        H  0.25434849  0.30507025  0.25972266     0.10700
H887        H  0.29537640  0.34611273  0.23477318     0.10800
H888        H  0.28993441  0.28589537  0.13364635     0.10500
H889        H  0.24973248  0.24442425  0.15838979     0.11600
H890        H  0.31946835  0.37295285  0.18236285     0.11700
H891        H  0.34212630  0.31414742  0.12662323     0.13600
H892        H  0.40436118  0.33224601  0.10982262     0.10100
H893        H  0.44370026  0.37847698  0.09032635     0.12200
H894        H  0.36534704  0.45956482  0.12034149     0.08800
H895        H  0.32607592  0.41343535  0.13838009     0.11600
C896        C  0.41596317  0.12709476  0.39883144    -0.03000
C897        C  0.40031875  0.10024649  0.37644723    -0.05700
C898        C  0.37368853  0.10899847  0.35233646    -0.20700
C899        C  0.36216232  0.14470819  0.35003323     0.25000
C900        C  0.37901409  0.17163981  0.37105756    -0.18300
C901        C  0.40562714  0.16299469  0.39464874    -0.08300
C902        C  0.33423497  0.15396132  0.32412535    -0.18500
C903        C  0.31247372  0.18257668  0.33009337    -0.23300
C904        C  0.28675145  0.19605545  0.30394164     0.27000
C905        C  0.26064877  0.22061881  0.31621844    -0.20100
C906        C  0.23808674  0.23708074  0.29257575    -0.09700
C907        C  0.24024716  0.22891250  0.25553466    -0.10300
C908        C  0.26726481  0.20472429  0.24345713    -0.03200
C909        C  0.28981885  0.18825223  0.26716406    -0.18300
H910        H  0.40921115  0.07281038  0.37631499     0.10700
H911        H  0.36209319  0.08783543  0.33540207     0.10800
H912        H  0.37234298  0.19965300  0.36873990     0.10500
H913        H  0.41830513  0.18472271  0.40988073     0.11600
H914        H  0.33148503  0.13671225  0.30009629     0.11700
H915        H  0.31355152  0.19733152  0.35579470     0.13600
H916        H  0.25840381  0.22808793  0.34435175     0.10100
H917        H  0.22042845  0.25755683  0.30377620     0.12200
H918        H  0.27124037  0.19898023  0.21523803     0.08800
H919        H  0.31046982  0.17064476  0.25639776     0.11600
C920        C  0.18797562  0.27295658  0.24453151    -0.03000
C921        C  0.18229824  0.30882123  0.23543368    -0.05700
C922        C  0.15822167  0.33136151  0.25406234    -0.20700
C923        C  0.13852869  0.31884114  0.28195618     0.25000
C924        C  0.14024235  0.28199706  0.28788059    -0.18300
C925        C  0.16383563  0.25912674  0.26848004    -0.08300
C926        C  0.11864190  0.34551843  0.30548093    -0.18500
C927        C  0.11615647  0.34243474  0.34078705    -0.23300
C928        C  0.10775061  0.37334482  0.36631213     0.27000
C929        C  0.12702778  0.37639023  0.39793812    -0.20100
C930        C  0.12314473  0.40641093  0.42145255    -0.09700
C931        C  0.09810585  0.43360997  0.41543530    -0.10300
C932        C  0.07822140  0.43021056  0.38378064    -0.03200
C933        C  0.08308737  0.40049809  0.35936596    -0.18300
H934        H  0.19697573  0.32013824  0.21438344     0.10700
H935        H  0.15631916  0.35924054  0.24777811     0.10800
H936        H  0.12397916  0.27098687  0.30797010     0.10500
H937        H  0.16511250  0.23105934  0.27412599     0.11600
H938        H  0.11152302  0.37096811  0.29473498     0.11700
H939        H  0.12665158  0.31837533  0.35195704     0.13600
H940        H  0.14678999  0.35634135  0.40356927     0.10100
H941        H  0.14137558  0.40875969  0.44343042     0.12200
H942        H  0.05985968  0.45120871  0.37727575     0.08800
H943        H  0.06786918  0.39895616  0.33503032     0.11600
loop_ 
_geom_bond_atom_site_label_1 
_geom_bond_atom_site_label_2 
_geom_bond_distance 
_geom_bond_site_symmetry_2 
_ccdc_geom_bond_type 
C1          C859   1.555       .  S
C1          C872   1.554       .  S
C1          C907   1.560       .  S
C1          C920   1.561       .  S
C2            C4   1.542       .  S
C2            C6   1.547       .  S
C2            C5   1.542       .  S
C2          C931   1.537       .  S
C3            C7   1.532       .  S
C3            C9   1.531       .  S
C3            C8   1.557       .  S
C3          C824   1.532       .  S
C4           C12   1.391       .  A
C4            C7   1.396       .  A
C5           C16   1.373       .  A
C5            C8   1.410       .  A
C6           C20   1.392       .  A
C6            C9   1.391       .  A
C7           C10   1.379       .  A
C8           C14   1.386       .  A
C9           C17   1.378       .  A
C10          N11   1.353       .  A
C10          H23   1.082       .  S
N11          C12   1.358       .  A
N11         C811   1.445       .  S
C12          H13   1.082       .  S
C14          N15   1.363       .  A
C14          H24   1.078       .  S
N15          C16   1.358       .  A
N15          N64   1.415   1_455  S
C16          H22   1.081       .  S
C17          N18   1.354       .  A
C17          H19   1.082       .  S
N18          C20   1.360       .  A
N18         C776   1.451       .  S
C20          H21   1.080       .  S
C25         C704   1.554       .  S
C25         C728   1.556       .  S
C25         C752   1.560       .  S
C25         C835   1.556       .  S
C26          C28   1.539       .  S
C26          C30   1.533       .  S
C26          C29   1.557       .  S
C26         C896   1.534       .  S
C27          C31   1.541       .  S
C27          C33   1.550       .  S
C27          C32   1.540       .  S
C27         C643   1.531       .  S
C28          C36   1.379       .  A
C28          C31   1.399       .  A
C29          C40   1.390       .  A
C29          C32   1.405       .  A
C30          C44   1.379       .  A
C30          C33   1.385       .  A
C31          C34   1.388       .  A
C32          C38   1.374       .  A
C33          C41   1.391       .  A
C34          N35   1.359       .  A
C34          H47   1.081       .  S
N35          C36   1.356       .  A
N35         C656   1.451       .  S
C36          H37   1.080       .  S
C38          N39   1.351       .  A
C38          H48   1.082       .  S
N39          C40   1.359       .  A
N39          N89   1.405   1_545  S
C40          H46   1.079       .  S
C41          N42   1.363       .  A
C41          H43   1.081       .  S
N42          C44   1.360       .  A
N42         C680   1.452       .  S
C44          H45   1.082       .  S
C49         C560   1.565       .  S
C49         C584   1.563       .  S
C49         C608   1.566       .  S
C49         C691   1.567       .  S
C50         C512   1.559       .  S
C50         C536   1.565       .  S
C50         C667   1.562       .  S
C50         C787   1.560       .  S
C51          C53   1.536       .  S
C51          C55   1.534       .  S
C51          C54   1.553       .  S
C51         C451   1.532       .  S
C52          C56   1.534       .  S
C52          C58   1.532       .  S
C52          C57   1.550       .  S
C52         C619   1.532       .  S
C53          C61   1.384       .  A
C53          C56   1.402       .  A
C54          C65   1.385       .  A
C54          C57   1.417       .  A
C55          C69   1.378       .  A
C55          C58   1.379       .  A
C56          C59   1.381       .  A
C57          C63   1.378       .  A
C58          C66   1.379       .  A
C59          N60   1.354       .  A
C59          H72   1.081       .  S
N60          C61   1.354       .  A
N60         C499   1.446       .  S
C61          H62   1.082       .  S
C63          N64   1.357       .  A
C63          H73   1.080       .  S
N64          C65   1.359       .  A
C65          H71   1.080       .  S
C66          N67   1.360       .  A
C66          H68   1.082       .  S
N67          C69   1.361       .  A
N67         C475   1.445       .  S
C69          H70   1.082       .  S
C74         C368   1.547       .  S
C74         C403   1.551       .  S
C74         C416   1.551       .  S
C74         C488   1.554       .  S
C75         C320   1.549       .  S
C75         C355   1.552       .  S
C75         C464   1.556       .  S
C75         C632   1.555       .  S
C76          C78   1.540       .  S
C76          C80   1.541       .  S
C76          C79   1.560       .  S
C76         C763   1.533       .  S
C77          C81   1.538       .  S
C77          C83   1.541       .  S
C77          C82   1.543       .  S
C77         C427   1.528       .  S
C78          C86   1.383       .  A
C78          C81   1.401       .  A
C79          C90   1.392       .  A
C79          C82   1.411       .  A
C80          C94   1.386       .  A
C80          C83   1.380       .  A
C81          C84   1.389       .  A
C82          C88   1.374       .  A
C83          C91   1.385       .  A
C84          N85   1.356       .  A
C84          H97   1.083       .  S
N85          C86   1.354       .  A
N85         C296   1.446       .  S
C86          H87   1.082       .  S
C88          N89   1.349       .  A
C88          H98   1.081       .  S
N89          C90   1.358       .  A
C90          H96   1.078       .  S
C91          N92   1.360       .  A
C91          H93   1.081       .  S
N92          C94   1.361       .  A
N92         C272   1.450       .  S
C94          H95   1.082       .  S
C99         C235   1.558       .  S
C99         C259   1.560       .  S
C99         C307   1.562       .  S
C99         C800   1.558       .  S
C100        C176   1.561       .  S
C100        C211   1.562       .  S
C100        C283   1.568       .  S
C100        C440   1.561       .  S
C101        C103   1.537       .  S
C101        C105   1.537       .  S
C101        C104   1.556       .  S
C101        C595   1.536       .  S
C102        C106   1.530       .  S
C102        C108   1.532       .  S
C102        C107   1.544       .  S
C102        C248   1.530       .  S
C103        C111   1.381       .  A
C103        C106   1.402       .  A
C104        C115   1.389       .  A
C104        C107   1.421       .  A
C105        C119   1.380       .  A
C105        C108   1.381       .  A
C106        C109   1.381       .  A
C107        C113   1.377       .  A
C108        C116   1.376       .  A
C109        N110   1.352       .  A
C109        H122   1.083       .  S
N110        C111   1.354       .  A
N110        C392   1.441       .  S
C111        H112   1.082       .  S
C113        N114   1.346   1_554  A
C113        H123   1.081       .  S
N114        C115   1.353   1_556  A
N114        N137   1.403       .  S
C115        H121   1.080       .  S
C116        N117   1.360       .  A
C116        H118   1.081       .  S
N117        C119   1.362       .  A
N117        C883   1.446       .  S
C119        H120   1.081       .  S
C124        C126   1.533       .  S
C124        C128   1.538       .  S
C124        C127   1.559       .  S
C124        C200   1.538       .  S
C125        C129   1.532       .  S
C125        C131   1.535       .  S
C125        C130   1.548       .  S
C125        C547   1.533       .  S
C126        C134   1.376       .  A
C126        C129   1.392       .  A
C127        C138   1.387       .  A
C127        C130   1.416       .  A
C128        C142   1.379       .  A
C128        C131   1.386       .  A
C129        C132   1.379       .  A
C130        C136   1.379       .  A
C131        C139   1.377       .  A
C132        N133   1.357       .  A
C132        H145   1.082       .  S
N133        C134   1.355       .  A
N133        C344   1.439       .  S
C134        H135   1.082       .  S
C136        N137   1.350       .  A
C136        H146   1.079       .  S
N137        C138   1.354       .  A
C138        H144   1.076       .  S
C139        N140   1.360       .  A
C139        H141   1.081       .  S
N140        C142   1.362       .  A
N140        C739   1.446       .  S
C142        H143   1.082       .  S
O147        C155   1.292       .  A
O147       Co167   2.074   1_455  S
O148        C156   1.259       .  A
O148       Co168   1.977       .  S
O149        C157   1.266       .  A
O149       Co169   1.985       .  S
O150        C158   1.265       .  A
O150       Co170   2.017       .  S
O151        C157   1.269       .  A
O151       Co168   2.005   1_455  S
O152        C158   1.258   1_554  A
O152       Co167   1.976       .  S
O153        C156   1.266       .  A
O153       Co170   2.013       .  S
O154        C155   1.265   1_556  A
O154       Co169   1.903       .  S
C155        C848   1.483       .  S
C156        C331   1.483       .  S
C157        C523   1.489       .  S
C158        C571   1.498   1_556  S
O159        C172   1.293       .  A
O159       Co167   2.080   1_565  S
O160        C173   1.256       .  A
O160       Co168   1.968   1_465  S
O161        C174   1.262       .  A
O161       Co169   2.001   1_565  S
O162        C175   1.269       .  A
O162       Co170   1.998   1_565  S
O163        C175   1.269       .  A
O163       Co168   2.000   1_565  S
O164        C174   1.259   1_554  A
O164       Co167   1.979   1_465  S
O165        C172   1.263   1_556  A
O165       Co170   1.889   1_565  S
O166        C173   1.268   1_545  A
O166       Co169   2.021       .  S
Co167       O171   2.187   1_554  S
Co168       O171   2.054       .  S
Co169       O171   1.996   1_455  S
Co170       O171   1.991       .  S
C172        C379   1.481       .  S
C173        C715   1.487       .  S
C174        C224   1.492   1_556  S
C175        C187   1.495       .  S
C176        C177   1.416       .  A
C176        C181   1.415       .  A
C177        C178   1.402       .  A
C177        H190   1.083       .  S
C178        C179   1.401       .  A
C178        H191   1.083       .  S
C179        C180   1.406       .  A
C179        C182   1.496       .  S
C180        C181   1.405       .  A
C180        H192   1.083       .  S
C181        H193   1.079       .  S
C182        C183   1.348       .  D
C182        H194   1.086       .  S
C183        C184   1.495       .  S
C183        H195   1.087       .  S
C184        C185   1.400       .  A
C184        C189   1.412       .  A
C185        C186   1.395       .  A
C185        H196   1.084       .  S
C186        C187   1.409       .  A
C186        H197   1.083       .  S
C187        C188   1.409       .  A
C188        C189   1.413       .  A
C188        H198   1.083       .  S
C189        H199   1.082       .  S
C200        C201   1.411       .  A
C200        C205   1.410       .  A
C201        C202   1.393       .  A
C201        H214   1.083       .  S
C202        C203   1.398       .  A
C202        H215   1.084       .  S
C203        C204   1.407       .  A
C203        C206   1.488       .  S
C204        C205   1.408       .  A
C204        H216   1.082       .  S
C205        H217   1.070       .  S
C206        C207   1.348       .  D
C206        H218   1.087       .  S
C207        C208   1.491       .  S
C207        H219   1.086       .  S
C208        C209   1.401       .  A
C208        C213   1.405       .  A
C209        C210   1.401       .  A
C209        H220   1.083       .  S
C210        C211   1.415       .  A
C210        H221   1.083       .  S
C211        C212   1.415       .  A
C212        C213   1.400       .  A
C212        H222   1.079       .  S
C213        H223   1.083       .  S
C224        C225   1.407   1_554  A
C224        C229   1.409       .  A
C225        C226   1.403   1_556  A
C225        H238   1.083       .  S
C226        C227   1.406       .  A
C226        H239   1.083   1_554  S
C227        C228   1.408       .  A
C227        C230   1.498       .  S
C228        C229   1.404       .  A
C228        H240   1.082       .  S
C229        H241   1.083       .  S
C230        C231   1.354       .  D
C230        H242   1.085       .  S
C231        C232   1.500       .  S
C231        H243   1.086       .  S
C232        C233   1.405       .  A
C232        C237   1.406       .  A
C233        C234   1.402       .  A
C233        H244   1.083       .  S
C234        C235   1.412       .  A
C234        H245   1.083       .  S
C235        C236   1.418       .  A
C236        C237   1.405       .  A
C236        H246   1.080       .  S
C237        H247   1.081       .  S
C248        C249   1.409       .  A
C248        C253   1.409       .  A
C249        C250   1.402       .  A
C249        H262   1.079       .  S
C250        C251   1.402       .  A
C250        H263   1.083       .  S
C251        C252   1.404       .  A
C251        C254   1.486       .  S
C252        C253   1.395       .  A
C252        H264   1.083       .  S
C253        H265   1.083       .  S
C254        C255   1.348       .  D
C254        H266   1.084       .  S
C255        C256   1.489       .  S
C255        H267   1.087       .  S
C256        C257   1.399       .  A
C256        C261   1.406       .  A
C257        C258   1.394       .  A
C257        H268   1.084       .  S
C258        C259   1.416       .  A
C258        H269   1.077       .  S
C259        C260   1.415       .  A
C260        C261   1.401       .  A
C260        H270   1.083       .  S
C261        H271   1.081       .  S
C272        C273   1.407       .  A
C272        C277   1.407       .  A
C273        C274   1.402       .  A
C273        H286   1.082       .  S
C274        C275   1.406       .  A
C274        H287   1.083       .  S
C275        C276   1.412       .  A
C275        C278   1.502       .  S
C276        C277   1.405       .  A
C276        H288   1.081       .  S
C277        H289   1.082       .  S
C278        C279   1.352       .  D
C278        H290   1.083       .  S
C279        C280   1.502       .  S
C279        H291   1.084       .  S
C280        C281   1.401       .  A
C280        C285   1.410       .  A
C281        C282   1.397       .  A
C281        H292   1.084       .  S
C282        C283   1.418       .  A
C282        H293   1.078       .  S
C283        C284   1.416       .  A
C284        C285   1.407       .  A
C284        H294   1.083       .  S
C285        H295   1.080       .  S
C296        C297   1.406       .  A
C296        C301   1.405       .  A
C297        C298   1.402       .  A
C297        H310   1.082       .  S
C298        C299   1.404       .  A
C298        H311   1.083       .  S
C299        C300   1.410       .  A
C299        C302   1.496       .  S
C300        C301   1.404       .  A
C300        H312   1.082       .  S
C301        H313   1.083       .  S
C302        C303   1.347       .  D
C302        H314   1.086       .  S
C303        C304   1.490       .  S
C303        H315   1.086       .  S
C304        C305   1.396       .  A
C304        C309   1.409       .  A
C305        C306   1.390       .  A
C305        H316   1.084       .  S
C306        C307   1.417       .  A
C306        H317   1.082       .  S
C307        C308   1.415       .  A
C308        C309   1.412       .  A
C308        H318   1.079       .  S
C309        H319   1.083       .  S
C320        C321   1.413       .  A
C320        C325   1.413       .  A
C321        C322   1.393       .  A
C321        H334   1.083       .  S
C322        C323   1.400       .  A
C322        H335   1.083       .  S
C323        C324   1.408       .  A
C323        C326   1.490       .  S
C324        C325   1.404       .  A
C324        H336   1.081       .  S
C325        H337   1.080       .  S
C326        C327   1.348       .  D
C326        H338   1.086       .  S
C327        C328   1.491       .  S
C327        H339   1.085       .  S
C328        C329   1.405       .  A
C328        C333   1.408       .  A
C329        C330   1.402       .  A
C329        H340   1.083       .  S
C330        C331   1.406       .  A
C330        H341   1.083       .  S
C331        C332   1.405       .  A
C332        C333   1.398       .  A
C332        H342   1.083       .  S
C333        H343   1.082       .  S
C344        C345   1.405       .  A
C344        C349   1.404       .  A
C345        C346   1.398       .  A
C345        H358   1.082       .  S
C346        C347   1.403       .  A
C346        H359   1.083       .  S
C347        C348   1.407       .  A
C347        C350   1.484       .  S
C348        C349   1.395       .  A
C348        H360   1.082       .  S
C349        H361   1.082       .  S
C350        C351   1.346       .  D
C350        H362   1.083       .  S
C351        C352   1.486       .  S
C351        H363   1.086       .  S
C352        C353   1.400       .  A
C352        C357   1.408       .  A
C353        C354   1.393       .  A
C353        H364   1.084       .  S
C354        C355   1.413       .  A
C354        H365   1.083       .  S
C355        C356   1.412       .  A
C356        C357   1.399       .  A
C356        H366   1.080       .  S
C357        H367   1.080       .  S
C368        C369   1.414       .  A
C368        C373   1.411       .  A
C369        C370   1.397       .  A
C369        H382   1.080       .  S
C370        C371   1.401       .  A
C370        H383   1.084       .  S
C371        C372   1.406       .  A
C371        C374   1.488       .  S
C372        C373   1.397       .  A
C372        H384   1.080       .  S
C373        H385   1.083       .  S
C374        C375   1.348       .  D
C374        H386   1.085       .  S
C375        C376   1.487       .  S
C375        H387   1.084       .  S
C376        C377   1.404       .  A
C376        C381   1.408       .  A
C377        C378   1.398       .  A
C377        H388   1.083       .  S
C378        C379   1.405       .  A
C378        H389   1.083       .  S
C379        C380   1.406       .  A
C380        C381   1.398       .  A
C380        H390   1.083       .  S
C381        H391   1.081       .  S
C392        C393   1.405       .  A
C392        C397   1.407       .  A
C393        C394   1.396       .  A
C393        H406   1.082       .  S
C394        C395   1.403       .  A
C394        H407   1.083       .  S
C395        C396   1.406       .  A
C395        C398   1.481       .  S
C396        C397   1.396       .  A
C396        H408   1.081       .  S
C397        H409   1.081       .  S
C398        C399   1.348       .  D
C398        H410   1.085       .  S
C399        C400   1.482       .  S
C399        H411   1.085       .  S
C400        C401   1.402       .  A
C400        C405   1.403       .  A
C401        C402   1.398       .  A
C401        H412   1.083       .  S
C402        C403   1.412       .  A
C402        H413   1.083       .  S
C403        C404   1.414       .  A
C404        C405   1.393       .  A
C404        H414   1.081       .  S
C405        H415   1.082       .  S
C416        C417   1.414       .  A
C416        C421   1.416       .  A
C417        C418   1.388       .  A
C417        H430   1.083       .  S
C418        C419   1.394       .  A
C418        H431   1.084       .  S
C419        C420   1.401       .  A
C419        C422   1.468       .  S
C420        C421   1.405       .  A
C420        H432   1.083       .  S
C421        H433   1.079       .  S
C422        C423   1.343       .  D
C422        H434   1.086       .  S
C423        C424   1.481       .  S
C423        H435   1.087       .  S
C424        C425   1.402       .  A
C424        C429   1.402       .  A
C425        C426   1.403       .  A
C425        H436   1.083       .  S
C426        C427   1.410       .  A
C426        H437   1.078       .  S
C427        C428   1.408       .  A
C428        C429   1.391       .  A
C428        H438   1.082       .  S
C429        H439   1.083       .  S
C440        C441   1.413       .  A
C440        C445   1.418       .  A
C441        C442   1.395       .  A
C441        H454   1.083       .  S
C442        C443   1.402       .  A
C442        H455   1.084       .  S
C443        C444   1.407       .  A
C443        C446   1.495       .  S
C444        C445   1.407       .  A
C444        H456   1.081       .  S
C445        H457   1.079       .  S
C446        C447   1.354       .  D
C446        H458   1.085       .  S
C447        C448   1.498       .  S
C447        H459   1.084       .  S
C448        C449   1.409       .  A
C448        C453   1.404       .  A
C449        C450   1.411       .  A
C449        H460   1.083       .  S
C450        C451   1.408       .  A
C450        H461   1.079       .  S
C451        C452   1.409       .  A
C452        C453   1.392       .  A
C452        H462   1.083       .  S
C453        H463   1.081       .  S
C464        C465   1.414       .  A
C464        C469   1.413       .  A
C465        C466   1.402       .  A
C465        H478   1.083       .  S
C466        C467   1.403       .  A
C466        H479   1.083       .  S
C467        C468   1.404       .  A
C467        C470   1.487       .  S
C468        C469   1.392       .  A
C468        H480   1.082       .  S
C469        H481   1.080       .  S
C470        C471   1.347       .  D
C470        H482   1.085       .  S
C471        C472   1.486       .  S
C471        H483   1.086       .  S
C472        C473   1.403       .  A
C472        C477   1.408       .  A
C473        C474   1.397       .  A
C473        H484   1.083       .  S
C474        C475   1.406       .  A
C474        H485   1.081       .  S
C475        C476   1.407       .  A
C476        C477   1.399       .  A
C476        H486   1.082       .  S
C477        H487   1.081       .  S
C488        C489   1.415       .  A
C488        C493   1.414       .  A
C489        C490   1.400       .  A
C489        H502   1.083       .  S
C490        C491   1.400       .  A
C490        H503   1.083       .  S
C491        C492   1.402       .  A
C491        C494   1.483       .  S
C492        C493   1.392       .  A
C492        H504   1.083       .  S
C493        H505   1.079       .  S
C494        C495   1.346       .  D
C494        H506   1.086       .  S
C495        C496   1.482       .  S
C495        H507   1.087       .  S
C496        C497   1.401       .  A
C496        C501   1.407       .  A
C497        C498   1.395       .  A
C497        H508   1.084       .  S
C498        C499   1.408       .  A
C498        H509   1.080       .  S
C499        C500   1.408       .  A
C500        C501   1.399       .  A
C500        H510   1.082       .  S
C501        H511   1.081       .  S
C512        C513   1.415       .  A
C512        C517   1.414       .  A
C513        C514   1.403       .  A
C513        H526   1.078       .  S
C514        C515   1.404       .  A
C514        H527   1.083       .  S
C515        C516   1.408       .  A
C515        C518   1.500       .  S
C516        C517   1.402       .  A
C516        H528   1.081       .  S
C517        H529   1.083       .  S
C518        C519   1.353       .  D
C518        H530   1.083       .  S
C519        C520   1.500       .  S
C519        H531   1.084       .  S
C520        C521   1.405       .  A
C520        C525   1.413       .  A
C521        C522   1.398       .  A
C521        H532   1.084       .  S
C522        C523   1.406       .  A
C522        H533   1.083       .  S
C523        C524   1.407       .  A
C524        C525   1.408       .  A
C524        H534   1.083       .  S
C525        H535   1.080       .  S
C536        C537   1.418       .  A
C536        C541   1.417       .  A
C537        C538   1.392       .  A
C537        H550   1.077       .  S
C538        C539   1.397       .  A
C538        H551   1.084       .  S
C539        C540   1.405       .  A
C539        C542   1.485       .  S
C540        C541   1.405       .  A
C540        H552   1.082       .  S
C541        H553   1.083       .  S
C542        C543   1.345       .  D
C542        H554   1.088       .  S
C543        C544   1.485       .  S
C543        H555   1.086       .  S
C544        C545   1.401       .  A
C544        C549   1.402       .  A
C545        C546   1.404       .  A
C545        H556   1.083       .  S
C546        C547   1.410       .  A
C546        H557   1.073       .  S
C547        C548   1.410       .  A
C548        C549   1.394       .  A
C548        H558   1.083       .  S
C549        H559   1.083       .  S
C560        C561   1.413       .  A
C560        C565   1.417       .  A
C561        C562   1.402       .  A
C561        H574   1.083       .  S
C562        C563   1.405       .  A
C562        H575   1.083       .  S
C563        C564   1.410       .  A
C563        C566   1.507       .  S
C564        C565   1.409       .  A
C564        H576   1.080       .  S
C565        H577   1.079       .  S
C566        C567   1.357       .  D
C566        H578   1.083       .  S
C567        C568   1.509       .  S
C567        H579   1.084       .  S
C568        C569   1.408       .  A
C568        C573   1.412       .  A
C569        C570   1.405       .  A
C569        H580   1.083       .  S
C570        C571   1.408       .  A
C570        H581   1.083       .  S
C571        C572   1.409       .  A
C572        C573   1.408       .  A
C572        H582   1.083   1_554  S
C573        H583   1.080       .  S
C584        C585   1.417       .  A
C584        C589   1.414       .  A
C585        C586   1.406       .  A
C585        H598   1.079       .  S
C586        C587   1.404       .  A
C586        H599   1.083       .  S
C587        C588   1.407       .  A
C587        C590   1.500       .  S
C588        C589   1.398       .  A
C588        H600   1.082       .  S
C589        H601   1.083       .  S
C590        C591   1.351       .  D
C590        H602   1.084       .  S
C591        C592   1.497       .  S
C591        H603   1.085       .  S
C592        C593   1.401       .  A
C592        C597   1.412       .  A
C593        C594   1.392       .  A
C593        H604   1.084       .  S
C594        C595   1.407       .  A
C594        H605   1.083       .  S
C595        C596   1.411       .  A
C596        C597   1.413       .  A
C596        H606   1.078       .  S
C597        H607   1.081       .  S
C608        C609   1.416       .  A
C608        C613   1.417       .  A
C609        C610   1.393       .  A
C609        H622   1.078       .  S
C610        C611   1.400       .  A
C610        H623   1.084       .  S
C611        C612   1.408       .  A
C611        C614   1.495       .  S
C612        C613   1.410       .  A
C612        H624   1.081       .  S
C613        H625   1.083       .  S
C614        C615   1.352       .  D
C614        H626   1.085       .  S
C615        C616   1.499       .  S
C615        H627   1.084       .  S
C616        C617   1.408       .  A
C616        C621   1.406       .  A
C617        C618   1.410       .  A
C617        H628   1.083       .  S
C618        C619   1.409       .  A
C618        H629   1.080       .  S
C619        C620   1.409       .  A
C620        C621   1.393       .  A
C620        H630   1.083       .  S
C621        H631   1.081       .  S
C632        C633   1.414       .  A
C632        C637   1.416       .  A
C633        C634   1.393       .  A
C633        H646   1.077       .  S
C634        C635   1.399       .  A
C634        H647   1.084       .  S
C635        C636   1.406       .  A
C635        C638   1.488       .  S
C636        C637   1.403       .  A
C636        H648   1.081       .  S
C637        H649   1.083       .  S
C638        C639   1.348       .  D
C638        H650   1.087       .  S
C639        C640   1.488       .  S
C639        H651   1.084       .  S
C640        C641   1.401       .  A
C640        C645   1.405       .  A
C641        C642   1.402       .  A
C641        H652   1.083       .  S
C642        C643   1.412       .  A
C642        H653   1.081       .  S
C643        C644   1.407       .  A
C644        C645   1.395       .  A
C644        H654   1.079       .  S
C645        H655   1.083       .  S
C656        C657   1.409       .  A
C656        C661   1.409       .  A
C657        C658   1.397       .  A
C657        H670   1.080       .  S
C658        C659   1.402       .  A
C658        H671   1.084       .  S
C659        C660   1.408       .  A
C659        C662   1.491       .  S
C660        C661   1.404       .  A
C660        H672   1.082       .  S
C661        H673   1.081       .  S
C662        C663   1.350       .  D
C662        H674   1.085       .  S
C663        C664   1.494       .  S
C663        H675   1.085       .  S
C664        C665   1.405       .  A
C664        C669   1.405       .  A
C665        C666   1.404       .  A
C665        H676   1.083       .  S
C666        C667   1.414       .  A
C666        H677   1.083       .  S
C667        C668   1.415       .  A
C668        C669   1.395       .  A
C668        H678   1.080       .  S
C669        H679   1.081       .  S
C680        C681   1.407       .  A
C680        C685   1.410       .  A
C681        C682   1.400       .  A
C681        H694   1.082       .  S
C682        C683   1.405       .  A
C682        H695   1.083       .  S
C683        C684   1.411       .  A
C683        C686   1.500       .  S
C684        C685   1.408       .  A
C684        H696   1.081       .  S
C685        H697   1.082       .  S
C686        C687   1.354       .  D
C686        H698   1.084       .  S
C687        C688   1.502       .  S
C687        H699   1.084       .  S
C688        C689   1.404       .  A
C688        C693   1.408       .  A
C689        C690   1.403       .  A
C689        H700   1.083       .  S
C690        C691   1.415       .  A
C690        H701   1.083       .  S
C691        C692   1.416       .  A
C692        C693   1.403       .  A
C692        H702   1.079       .  S
C693        H703   1.081       .  S
C704        C705   1.414       .  A
C704        C709   1.414       .  A
C705        C706   1.396       .  A
C705        H718   1.083       .  S
C706        C707   1.400       .  A
C706        H719   1.083       .  S
C707        C708   1.407       .  A
C707        C710   1.490       .  S
C708        C709   1.403       .  A
C708        H720   1.081       .  S
C709        H721   1.079       .  S
C710        C711   1.350       .  D
C710        H722   1.085       .  S
C711        C712   1.493       .  S
C711        H723   1.085       .  S
C712        C713   1.407       .  A
C712        C717   1.406       .  A
C713        C714   1.405       .  A
C713        H724   1.083       .  S
C714        C715   1.405       .  A
C714        H725   1.083       .  S
C715        C716   1.408       .  A
C716        C717   1.396       .  A
C716        H726   1.083       .  S
C717        H727   1.082       .  S
C728        C729   1.415       .  A
C728        C733   1.414       .  A
C729        C730   1.397       .  A
C729        H742   1.080       .  S
C730        C731   1.400       .  A
C730        H743   1.084       .  S
C731        C732   1.404       .  A
C731        C734   1.484       .  S
C732        C733   1.398       .  A
C732        H744   1.082       .  S
C733        H745   1.083       .  S
C734        C735   1.347       .  D
C734        H746   1.086       .  S
C735        C736   1.486       .  S
C735        H747   1.086       .  S
C736        C737   1.403       .  A
C736        C741   1.406       .  A
C737        C738   1.399       .  A
C737        H748   1.084       .  S
C738        C739   1.407       .  A
C738        H749   1.081       .  S
C739        C740   1.407       .  A
C740        C741   1.398       .  A
C740        H750   1.081       .  S
C741        H751   1.082       .  S
C752        C753   1.414       .  A
C752        C757   1.415       .  A
C753        C754   1.405       .  A
C753        H766   1.083       .  S
C754        C755   1.404       .  A
C754        H767   1.083       .  S
C755        C756   1.405       .  A
C755        C758   1.497       .  S
C756        C757   1.395       .  A
C756        H768   1.081       .  S
C757        H769   1.079       .  S
C758        C759   1.350       .  D
C758        H770   1.084       .  S
C759        C760   1.492       .  S
C759        H771   1.085       .  S
C760        C761   1.400       .  A
C760        C765   1.411       .  A
C761        C762   1.389       .  A
C761        H772   1.084       .  S
C762        C763   1.409       .  A
C762        H773   1.084       .  S
C763        C764   1.409       .  A
C764        C765   1.411       .  A
C764        H774   1.073       .  S
C765        H775   1.081       .  S
C776        C777   1.409       .  A
C776        C781   1.410       .  A
C777        C778   1.402       .  A
C777        H790   1.081       .  S
C778        C779   1.404       .  A
C778        H791   1.083       .  S
C779        C780   1.406       .  A
C779        C782   1.491       .  S
C780        C781   1.398       .  A
C780        H792   1.082       .  S
C781        H793   1.081       .  S
C782        C783   1.347       .  D
C782        H794   1.087       .  S
C783        C784   1.483       .  S
C783        H795   1.085       .  S
C784        C785   1.396       .  A
C784        C789   1.405       .  A
C785        C786   1.391       .  A
C785        H796   1.084       .  S
C786        C787   1.416       .  A
C786        H797   1.082       .  S
C787        C788   1.417       .  A
C788        C789   1.406       .  A
C788        H798   1.078       .  S
C789        H799   1.083       .  S
C800        C801   1.414       .  A
C800        C805   1.415       .  A
C801        C802   1.405       .  A
C801        H814   1.083       .  S
C802        C803   1.406       .  A
C802        H815   1.083       .  S
C803        C804   1.398       .  A
C803        C806   1.484       .  S
C804        C805   1.393       .  A
C804        H816   1.084       .  S
C805        H817   1.081       .  S
C806        C807   1.349       .  D
C806        H818   1.084       .  S
C807        C808   1.494       .  S
C807        H819   1.087       .  S
C808        C809   1.406       .  A
C808        C813   1.408       .  A
C809        C810   1.402       .  A
C809        H820   1.083       .  S
C810        C811   1.405       .  A
C810        H821   1.082       .  S
C811        C812   1.407       .  A
C812        C813   1.399       .  A
C812        H822   1.082       .  S
C813        H823   1.081       .  S
C824        C825   1.410       .  A
C824        C829   1.409       .  A
C825        C826   1.385       .  A
C825        H838   1.084       .  S
C826        C827   1.395       .  A
C826        H839   1.084       .  S
C827        C828   1.410       .  A
C827        C830   1.484       .  S
C828        C829   1.413       .  A
C828        H840   1.082       .  S
C829        H841   1.075       .  S
C830        C831   1.345       .  D
C830        H842   1.086       .  S
C831        C832   1.492       .  S
C831        H843   1.086       .  S
C832        C833   1.401       .  A
C832        C837   1.407       .  A
C833        C834   1.404       .  A
C833        H844   1.083       .  S
C834        C835   1.417       .  A
C834        H845   1.079       .  S
C835        C836   1.411       .  A
C836        C837   1.394       .  A
C836        H846   1.083       .  S
C837        H847   1.082       .  S
C848        C849   1.406       .  A
C848        C853   1.406       .  A
C849        C850   1.398       .  A
C849        H862   1.083       .  S
C850        C851   1.402       .  A
C850        H863   1.083       .  S
C851        C852   1.409       .  A
C851        C854   1.488       .  S
C852        C853   1.404       .  A
C852        H864   1.082       .  S
C853        H865   1.083       .  S
C854        C855   1.348       .  D
C854        H866   1.085       .  S
C855        C856   1.492       .  S
C855        H867   1.086       .  S
C856        C857   1.402       .  A
C856        C861   1.406       .  A
C857        C858   1.400       .  A
C857        H868   1.083       .  S
C858        C859   1.413       .  A
C858        H869   1.083       .  S
C859        C860   1.415       .  A
C860        C861   1.401       .  A
C860        H870   1.080       .  S
C861        H871   1.082       .  S
C872        C873   1.413       .  A
C872        C877   1.414       .  A
C873        C874   1.394       .  A
C873        H886   1.083       .  S
C874        C875   1.399       .  A
C874        H887   1.083       .  S
C875        C876   1.406       .  A
C875        C878   1.485       .  S
C876        C877   1.402       .  A
C876        H888   1.082       .  S
C877        H889   1.080       .  S
C878        C879   1.346       .  D
C878        H890   1.087       .  S
C879        C880   1.485       .  S
C879        H891   1.085       .  S
C880        C881   1.402       .  A
C880        C885   1.405       .  A
C881        C882   1.400       .  A
C881        H892   1.083       .  S
C882        C883   1.408       .  A
C882        H893   1.081       .  S
C883        C884   1.408       .  A
C884        C885   1.396       .  A
C884        H894   1.081       .  S
C885        H895   1.083       .  S
C896        C897   1.408       .  A
C896        C901   1.410       .  A
C897        C898   1.408       .  A
C897        H910   1.075       .  S
C898        C899   1.406       .  A
C898        H911   1.083       .  S
C899        C900   1.403       .  A
C899        C902   1.493       .  S
C900        C901   1.393       .  A
C900        H912   1.082       .  S
C901        H913   1.083       .  S
C902        C903   1.352       .  D
C902        H914   1.085       .  S
C903        C904   1.492       .  S
C903        H915   1.086       .  S
C904        C905   1.403       .  A
C904        C909   1.404       .  A
C905        C906   1.399       .  A
C905        H916   1.083       .  S
C906        C907   1.414       .  A
C906        H917   1.078       .  S
C907        C908   1.417       .  A
C908        C909   1.401       .  A
C908        H918   1.083       .  S
C909        H919   1.081       .  S
C920        C921   1.417       .  A
C920        C925   1.413       .  A
C921        C922   1.397       .  A
C921        H934   1.081       .  S
C922        C923   1.399       .  A
C922        H935   1.083       .  S
C923        C924   1.408       .  A
C923        C926   1.493       .  S
C924        C925   1.406       .  A
C924        H936   1.082       .  S
C925        H937   1.083       .  S
C926        C927   1.347       .  D
C926        H938   1.087       .  S
C927        C928   1.489       .  S
C927        H939   1.086       .  S
C928        C929   1.398       .  A
C928        C933   1.408       .  A
C929        C930   1.393       .  A
C929        H940   1.084       .  S
C930        C931   1.411       .  A
C930        H941   1.079       .  S
C931        C932   1.411       .  A
C932        C933   1.409       .  A
C932        H942   1.082       .  S
C933        H943   1.083       .  S
