geometry optimzed in LAMMPS
_audit_creation_date              2020-11-30 
_audit_creation_method            'lammps2cif' 
_symmetry_space_group_name_H-M    'P1' 
_symmetry_Int_Tables_number       1 
_symmetry_cell_setting            triclinic 
loop_ 
_symmetry_equiv_pos_as_xyz 
  x,y,z 
_cell_length_a                    28.00177982748066 
_cell_length_b                    28.463661289319447 
_cell_length_c                    28.17553438623706 
_cell_angle_alpha                 89.97426764918325 
_cell_angle_beta                  90.07560816016701 
_cell_angle_gamma                 90.03425002927341 
loop_ 
_atom_site_label 
_atom_site_type_symbol 
_atom_site_fract_x 
_atom_site_fract_y 
_atom_site_fract_z 
_atom_site_charge 
O1          O  0.99655481  0.14090416  0.06883716    -0.84270
O2          O  0.06602280  0.88634513  0.10212391    -0.84430
O3          O  0.96681412  0.02218453  0.16157862    -0.86100
O4          O  0.11191133  0.04542302  0.11864213    -0.84860
O5          O  0.15273531  0.04702670  0.04806671    -0.84450
O6          O  0.89953406  0.00163387  0.11954835    -0.85820
O7          O  0.06031398  0.94911476  0.15279655    -0.84300
O8          O  0.03110406  0.09701711  0.12827713    -0.83880
Zr9        Zr  0.03170390  0.01511470  0.10576758     2.84310
O10         O  0.07945249  0.97278129  0.05317605    -1.05860
O11         O  0.96210771  0.04027589  0.06759348    -1.06590
C12         C  0.01840348  0.13607992  0.10878225     1.08840
C13         C  0.07002947  0.90582070  0.14322056     1.08780
C14         C  0.92138564  0.01831588  0.15616032     1.11760
C15         C  0.14898940  0.05455262  0.09294249     1.09540
H16         H  0.97759572  0.93202869  0.10725733     0.35100
O17         O  0.98626424  0.95104181  0.08020626    -1.26810
H18         H  0.06759689  0.08677429  0.05214205     0.34780
O19         O  0.04894311  0.06084932  0.04082345    -1.28490
O20         O  0.02934575  0.85743475  0.95979962    -0.84260
O21         O  0.95679771  0.10808778  0.92396001    -0.85760
O22         O  0.90302943  0.89852408  0.06570118    -0.84340
O23         O  0.15309370  0.95911390  0.97608098    -0.84390
O24         O  0.11068182  0.10492909  0.97979723    -0.84100
O25         O  0.85849442  0.03827214  0.04416844    -0.83910
O26         O  0.90761149  0.95095183  0.90749418    -0.84280
O27         O  0.04308681  0.00377648  0.86373094    -0.83740
O28         O  0.86335320  0.95268642  0.97585861    -0.84800
O29         O  0.10762674  0.03286540  0.90425305    -0.83960
O30         O  0.97025430  0.85480153  0.05107396    -0.84360
O31         O  0.90014321  0.10615845  0.02972849    -0.84080
O32         O  0.04023492  0.14600636  0.98751581    -0.83730
O33         O  0.11351392  0.89190258  0.99894190    -0.84140
O34         O  0.00856752  0.90379535  0.89612629    -0.84440
O35         O  0.95558532  0.04373463  0.87485190    -0.85780
Zr36       Zr  0.03344791  0.90948213  0.02644082     2.83100
Zr37       Zr  0.98011772  0.08779709  0.00378983     2.83500
Zr38       Zr  0.91791434  0.97711029  0.03956760     2.84090
Zr39       Zr  0.09648499  0.02166844  0.98809346     2.83360
Zr40       Zr  0.98547188  0.98131757  0.92375693     2.84220
O41         O  0.02742571  0.04701703  0.95016509    -1.06350
O42         O  0.96412814  0.93325403  0.98718035    -1.05850
C43         C  0.02302734  0.86513925  0.91537442     1.08810
C44         C  0.95248715  0.08792384  0.88314444     1.11430
C45         C  0.92621313  0.85955466  0.06414349     1.08990
C46         C  0.14915052  0.91435270  0.98068212     1.09340
C47         C  0.08591563  0.14265695  0.98543666     1.08930
C48         C  0.86242485  0.08322157  0.04202393     1.08480
C49         C  0.86867894  0.94517710  0.93088530     1.08910
C50         C  0.08408580  0.02415280  0.86598874     1.08420
H51         H  0.90765886  0.03503676  0.95891826     0.35100
O52         O  0.93632299  0.02446965  0.97476307    -1.27450
H53         H  0.07339709  0.94106312  0.93813797     0.35120
O54         O  0.05421638  0.95688764  0.96154665    -1.28830
C55         C  0.01398031  0.21069647  0.26609964     0.05350
C56         C  0.05409252  0.19249872  0.24325567    -0.10800
C57         C  0.06999492  0.21287184  0.20126847     0.02850
C58         C  0.05735248  0.25886447  0.19069515    -0.09330
C59         C  0.01572355  0.27731486  0.21025395     0.05340
C60         C  0.99317107  0.25304283  0.24850046    -0.08750
H61         H  0.06607327  0.15726097  0.25210420     0.10940
H62         H  0.07165792  0.27437932  0.15845308     0.08470
H63         H  0.95967902  0.26564250  0.26280084     0.08310
O64         O  0.99069870  0.12631228  0.40932948    -0.73070
O65         O  0.98274679  0.06771547  0.35431072    -0.51980
C66         C  0.98601517  0.11158487  0.36648952     0.80660
O67         O  0.13353219  0.98975834  0.56040540    -0.57670
O68         O  0.07984344  0.99555919  0.62126570    -0.50700
C69         C  0.12267294  0.99226566  0.60465473     0.72670
O70         O  0.11991057  0.98400633  0.40399309    -0.72230
O71         O  0.05737647  0.98572402  0.35153828    -0.52800
C72         C  0.10243181  0.98309783  0.36187291     0.78670
O73         O  0.00245122  0.13188636  0.56551988    -0.57370
O74         O  0.00534980  0.07607055  0.62398446    -0.50490
C75         C  0.00529600  0.11915963  0.60918002     0.75270
Zr76       Zr  0.99592494  0.09311666  0.48884321     2.54710
O77         O  0.06309763  0.14699575  0.48191152    -0.77940
O78         O  0.93463568  0.15373535  0.49198242    -0.91360
Zr79       Zr  0.09085105  0.99054238  0.48477285     2.64680
O80         O  0.15066868  0.05211224  0.47623046    -0.96310
O81         O  0.14804230  0.92614974  0.48362496    -0.78370
O82         O  0.04005087  0.04086591  0.44004901    -0.81730
O83         O  0.04826180  0.04420360  0.53314489    -2.16440
O84         O  0.86487019  0.00251300  0.58417137    -0.65120
O85         O  0.92854865  0.00115552  0.63510268    -0.49690
C86         C  0.88339102  0.00204618  0.62596525     0.73650
O87         O  0.97417567  0.85989397  0.41890961    -0.58030
O88         O  0.97418454  0.91569268  0.36035916    -0.50010
C89         C  0.97147539  0.87275982  0.37524036     0.75450
O90         O  0.99286614  0.86454145  0.57477992    -0.69420
O91         O  0.00078927  0.92364958  0.62935754    -0.48100
C92         C  0.99756736  0.87991432  0.61731692     0.76830
O93         O  0.84930956  0.99378659  0.42836321    -0.64750
O94         O  0.90208702  0.99172190  0.36632249    -0.51950
C95         C  0.85947690  0.99195132  0.38409643     0.75220
Zr96       Zr  0.89286308  0.99969530  0.50216040     2.77540
O97         O  0.83055087  0.94038763  0.50974160    -0.95500
O98         O  0.83871514  0.06654578  0.50292897    -0.76320
Zr99       Zr  0.98734559  0.89743841  0.49559205     2.70070
O100        O  0.92337622  0.84029955  0.50514743    -0.77570
O101        O  0.05117344  0.83972499  0.48936335    -0.96650
Zr102      Zr  0.98352615  0.99260466  0.39921364     2.21500
Zr103      Zr  0.00014080  0.99834502  0.58553538     2.11130
O104        O  0.94390913  0.94925731  0.54528716    -2.45340
O105        O  0.93556713  0.94727023  0.45234839    -0.77360
O106        O  0.94804759  0.04881659  0.54209487    -0.69560
O107        O  0.03551134  0.94215573  0.44345852    -2.30520
O108        O  0.93943735  0.04532706  0.44872816    -2.26720
O109        O  0.04359938  0.94473632  0.53685803    -0.71320
H110        H  0.07043498  0.06343741  0.55084206     0.80680
H111        H  0.05231947  0.92097019  0.42257490     0.81760
H112        H  0.92531902  0.93115685  0.56761681     0.83990
H113        H  0.91854673  0.06475691  0.42976335     0.81600
H114        H  0.13297901  0.90177599  0.46350515     0.44630
H115        H  0.07316524  0.84733758  0.51581810     0.43600
H116        H  0.89466088  0.85631802  0.49254722     0.43280
H117        H  0.83993710  0.92120499  0.53754441     0.41210
H118        H  0.85444889  0.08980475  0.52387962     0.44350
H119        H  0.91230493  0.14607099  0.46583309     0.39130
H120        H  0.08418912  0.13240366  0.45790862     0.45250
H121        H  0.14776402  0.07137971  0.50532646     0.41660
H122        H  0.80201333  0.95797489  0.52038428     0.46580
H123        H  0.95100575  0.18275341  0.48142595     0.45300
H124        H  0.18160339  0.03564719  0.47981035     0.45440
H125        H  0.03613083  0.80965140  0.49879129     0.45800
C126        C  0.77568621  0.02364309  0.27800479     0.05350
C127        C  0.81050805  0.05123792  0.25663379    -0.10800
C128        C  0.80864673  0.05971645  0.20815293     0.02850
C129        C  0.76654230  0.05057837  0.18318553    -0.09330
C130        C  0.72890409  0.02678613  0.20525496     0.05340
C131        C  0.73405844  0.01135651  0.25266549    -0.08750
H132        H  0.84294277  0.05962673  0.27603877     0.10940
H133        H  0.76489734  0.05764551  0.14535282     0.08470
H134        H  0.70719340  0.98911650  0.26880477     0.08310
C135        C  0.99870197  0.72861655  0.20218946     0.05350
C136        C  0.03648220  0.75453768  0.18288299    -0.10800
C137        C  0.05324410  0.79541704  0.20496823     0.02850
C138        C  0.03401841  0.80842067  0.24879097    -0.09330
C139        C  0.99490431  0.78468923  0.26784995     0.05340
C140        C  0.97684554  0.74421498  0.24471636    -0.08750
H141        H  0.05121365  0.74414910  0.14886201     0.10940
H142        H  0.04749207  0.83892018  0.26738885     0.08470
H143        H  0.94632412  0.72568753  0.25910512     0.08310
C144        C  0.27295376  0.00111337  0.20937611     0.05350
C145        C  0.25916326  0.04372530  0.18930200    -0.10800
C146        C  0.21435662  0.06250881  0.19909747     0.02850
C147        C  0.18766321  0.04436132  0.23668758    -0.09330
C148        C  0.20196822  0.00334397  0.25985151     0.05340
C149        C  0.24444424  0.98038170  0.24528518    -0.08750
H150        H  0.28036382  0.05875227  0.16086875     0.10940
H151        H  0.15290953  0.05930827  0.24461889     0.08470
H152        H  0.25431075  0.94681369  0.26050501     0.08310
C153        C  0.02161642  0.79245339  0.72780303     0.05350
C154        C  0.04600648  0.81994566  0.76086191    -0.10800
C155        C  0.05728790  0.80175288  0.80525477     0.02850
C156        C  0.05076777  0.75410208  0.81429319    -0.09330
C157        C  0.02349198  0.72690378  0.78355401     0.05340
C158        C  0.00862394  0.74578464  0.73951461    -0.08750
H159        H  0.05148575  0.85709752  0.75394874     0.10940
H160        H  0.06088346  0.73995935  0.84866791     0.08470
H161        H  0.98641495  0.72533589  0.71574009     0.08310
C162        C  0.20722011  0.01560663  0.71593596     0.05350
C163        C  0.17547718  0.04326774  0.74174222    -0.10800
C164        C  0.18481685  0.05423853  0.78895965     0.02850
C165        C  0.22862716  0.04234139  0.80913991    -0.09330
C166        C  0.26131811  0.01490430  0.78416067     0.05340
C167        C  0.25059831  0.00077785  0.73709960    -0.08750
H168        H  0.14105969  0.05246217  0.72656866     0.10940
H169        H  0.23523552  0.05034699  0.84625585     0.08470
H170        H  0.27467233  0.97781856  0.71799805     0.08310
C171        C  0.00254032  0.20550200  0.72302967     0.05350
C172        C  0.01034892  0.25368891  0.73417331    -0.10800
C173        C  0.00541588  0.26869241  0.78201010     0.02850
C174        C  0.99314074  0.23646284  0.81669167    -0.09330
C175        C  0.98472484  0.18994382  0.80552946     0.05340
C176        C  0.98962706  0.17422423  0.75899657    -0.08750
H177        H  0.02013538  0.27848297  0.70669586     0.10940
H178        H  0.98984047  0.24783147  0.85339238     0.08470
H179        H  0.98485377  0.13728620  0.75084987     0.08310
C180        C  0.79904037  0.98054372  0.74165377     0.05350
C181        C  0.82338479  0.95286924  0.77491767    -0.10800
C182        C  0.80191736  0.94047810  0.81810073     0.02850
C183        C  0.75468959  0.95354093  0.82649546    -0.09330
C184        C  0.73025600  0.98200800  0.79431012     0.05340
C185        C  0.75218937  0.99578388  0.75152713    -0.08750
H186        H  0.86021457  0.94310802  0.76821752     0.10940
H187        H  0.73727658  0.94342077  0.85926882     0.08470
H188        H  0.73347443  0.01840337  0.72678914     0.08310
O189        O  0.56438870  0.13512130  0.99204871    -0.73070
O190        O  0.62542065  0.08174428  0.99009814    -0.51980
C191        C  0.60886910  0.12414805  0.99036080     0.80660
O192        O  0.42092590  0.98067327  0.13024740    -0.57670
O193        O  0.36194587  0.98008890  0.07392835    -0.50700
C194        C  0.37706281  0.97732717  0.11725418     0.72670
O195        O  0.57779226  0.00147261  0.12637557    -0.72230
O196        O  0.63323497  0.00678714  0.06697595    -0.52800
C197        C  0.62078333  0.00534877  0.11105799     0.78670
O198        O  0.40752163  0.12384856  0.99632426    -0.57370
O199        O  0.35425505  0.06283300  0.99892235    -0.50490
C200        C  0.36495571  0.10729160  0.99814901     0.75270
Zr201      Zr  0.48830451  0.09343321  0.99498190     2.54710
O202        O  0.48606251  0.14941100  0.06022937    -0.77940
O203        O  0.48052936  0.15151204  0.93192792    -0.91360
Zr204      Zr  0.49797644  0.99509064  0.09302904     2.64680
O205        O  0.49177873  0.05957910  0.14948076    -0.96310
O206        O  0.50705034  0.93497744  0.15386225    -0.78370
O207        O  0.54011968  0.04852193  0.04371161    -0.81730
O208        O  0.44586831  0.04139154  0.04584924    -2.16440
O209        O  0.41310757  0.99363655  0.86163329    -0.65120
O210        O  0.35738633  0.98784611  0.92074009    -0.49690
C211        C  0.36993636  0.99066317  0.87662330     0.73650
O212        O  0.58652048  0.86942303  0.99183831    -0.58030
O213        O  0.63844565  0.93152102  0.99183741    -0.50010
C214        C  0.62883175  0.88707333  0.99207697     0.75450
O215        O  0.42921777  0.85600011  0.99814374    -0.69420
O216        O  0.36730180  0.90860136  0.99777840    -0.48100
C217        C  0.38466854  0.86639067  0.99874615     0.76830
O218        O  0.57077097  0.00186015  0.85766919    -0.64750
O219        O  0.62880417  0.00584175  0.91485119    -0.51950
C220        C  0.61442948  0.00480938  0.87133422     0.75220
Zr221      Zr  0.49298924  0.99605353  0.89536503     2.77540
O222        O  0.49581053  0.93224859  0.83784670    -0.95500
O223        O  0.48805533  0.05845039  0.83647540    -0.76320
Zr224      Zr  0.50432102  0.89809321  0.99327746     2.70070
O225        O  0.50574496  0.84198189  0.92812137    -0.77570
O226        O  0.51320731  0.84014320  0.05629141    -0.96650
Zr227      Zr  0.58916761  0.00309029  0.99196848     2.21500
Zr228      Zr  0.40150517  0.98866316  0.99647302     2.11130
O229        O  0.45135969  0.94289134  0.94516760    -2.45340
O230        O  0.54575502  0.95021387  0.94234249    -0.77360
O231        O  0.44374089  0.04165306  0.94594154    -0.69560
O232        O  0.54779700  0.94978020  0.04285416    -2.30520
O233        O  0.53719390  0.04896652  0.94326997    -2.26720
O234        O  0.45437808  0.94265744  0.04423595    -0.71320
H235        H  0.42465255  0.05895367  0.06619051     0.80680
H236        H  0.56998313  0.93192956  0.06194451     0.81760
H237        H  0.43219753  0.92200666  0.92597371     0.83990
H238        H  0.55522083  0.06990074  0.92310949     0.81600
H239        H  0.52318171  0.90859339  0.13757507     0.44630
H240        H  0.48577477  0.84572095  0.07769474     0.43600
H241        H  0.52738229  0.85624048  0.90436868     0.43280
H242        H  0.46742512  0.91267747  0.84478100     0.41210
H243        H  0.46742791  0.08255600  0.85130040     0.44350
H244        H  0.50858848  0.14642909  0.91122061     0.39130
H245        H  0.51040544  0.13788653  0.08292904     0.45250
H246        H  0.45820226  0.07025104  0.14739532     0.41660
H247        H  0.48845164  0.94740067  0.80705775     0.46580
H248        H  0.48677998  0.18201547  0.94764301     0.45300
H249        H  0.49414459  0.04430416  0.18097379     0.45440
H250        H  0.50616199  0.80963507  0.04091870     0.45800
O251        O  0.13494560  0.42693255  0.99464847    -0.73070
O252        O  0.07939054  0.36790715  0.99249334    -0.51980
C253        C  0.12302397  0.38345115  0.99338667     0.80660
O254        O  0.98194487  0.57700833  0.12473164    -0.57670
O255        O  0.98479411  0.63302402  0.06647727    -0.50700
C256        C  0.98146919  0.61996679  0.11029484     0.72670
O257        O  0.98787237  0.42084440  0.12566275    -0.72230
O258        O  0.99473309  0.36412796  0.06837341    -0.52800
C259        C  0.99017166  0.37780421  0.11213217     0.78670
O260        O  0.12777592  0.58079158  0.99665685    -0.57370
O261        O  0.06761934  0.63511140  0.99347905    -0.50490
C262        C  0.11217048  0.62314510  0.99527793     0.75270
Zr263      Zr  0.09432498  0.50216760  0.99605101     2.54710
O264        O  0.14777822  0.50309729  0.06425222    -0.77940
O265        O  0.15656616  0.50726693  0.93594047    -0.91360
Zr266      Zr  0.99034950  0.49860614  0.08971732     2.64680
O267        O  0.05494634  0.49990085  0.14768004    -0.96310
O268        O  0.92673345  0.49623312  0.14847279    -0.78370
O269        O  0.04459602  0.45349468  0.04342211    -0.81730
O270        O  0.04136340  0.54688438  0.04357676    -2.16440
O271        O  0.99826373  0.57563321  0.85587581    -0.65120
O272        O  0.99370827  0.63198514  0.91356664    -0.49690
C273        C  0.99614846  0.61839496  0.86978687     0.73650
O274        O  0.86293551  0.41557952  0.98315749    -0.58030
O275        O  0.92321975  0.36121641  0.98615610    -0.50010
C276        C  0.87861551  0.37313992  0.98408064     0.75450
O277        O  0.85710163  0.57191472  0.98577028    -0.69420
O278        O  0.91401377  0.62970903  0.98765543    -0.48100
C279        C  0.87033320  0.61521809  0.98644455     0.76830
O280        O  0.00593008  0.42341481  0.85459980    -0.64750
O281        O  0.00498152  0.36615835  0.91171910    -0.51950
C282        C  0.00722052  0.38048167  0.86796098     0.75220
Zr283      Zr  0.99945591  0.49891552  0.89254775     2.77540
O284        O  0.93652331  0.49468375  0.83292725    -0.95500
O285        O  0.06604670  0.50246101  0.83723526    -0.76320
Zr286      Zr  0.89569431  0.49487089  0.98603667     2.70070
O287        O  0.83920678  0.49429454  0.92032060    -0.77570
O288        O  0.83587734  0.49045186  0.04853043    -0.96650
Zr289      Zr  0.99912494  0.40509760  0.99054426     2.21500
Zr290      Zr  0.99190924  0.59104133  0.99068173     2.11130
O291        O  0.94522390  0.54327637  0.93857353    -2.45340
O292        O  0.94907123  0.45006371  0.93874171    -0.77360
O293        O  0.04611017  0.54675588  0.94346061    -0.69560
O294        O  0.94481656  0.45042467  0.03781645    -2.30520
O295        O  0.04935917  0.45442942  0.94352308    -2.26720
O296        O  0.94084030  0.54294527  0.03818657    -0.71320
H297        H  0.05934262  0.56753777  0.06410812     0.80680
H298        H  0.92462298  0.42995878  0.05637442     0.81760
H299        H  0.92560078  0.56243908  0.91806452     0.83990
H300        H  0.07088863  0.43584687  0.92448598     0.81600
H301        H  0.90075771  0.47820907  0.13304710     0.44630
H302        H  0.84219156  0.51817712  0.06881056     0.43600
H303        H  0.85384730  0.47323809  0.89647290     0.43280
H304        H  0.91606809  0.52240101  0.83893529     0.41210
H305        H  0.08950990  0.52355544  0.85267076     0.44350
H306        H  0.15087714  0.48015588  0.91466325     0.39130
H307        H  0.13625617  0.47725058  0.08480093     0.45250
H308        H  0.06824760  0.53208855  0.14595303     0.41660
H309        H  0.95278854  0.50181877  0.80258458     0.46580
H310        H  0.18648044  0.49945547  0.95297006     0.45300
H311        H  0.03862602  0.49863265  0.17880503     0.45440
H312        H  0.80531764  0.49769292  0.03240516     0.45800
C313        C  0.25787015  0.20353862  0.01966654     0.05350
C314        C  0.22046239  0.18068079  0.04280031    -0.10800
C315        C  0.17799434  0.20436777  0.05202289     0.02850
C316        C  0.17531971  0.25249264  0.04671451    -0.09330
C317        C  0.20954683  0.27573997  0.01998370     0.05340
C318        C  0.25185586  0.25151113  0.00613949    -0.08750
H319        H  0.22177944  0.14283934  0.04737359     0.10940
H320        H  0.14144777  0.26959116  0.05428806     0.08470
H321        H  0.27828088  0.26878385  0.98419324     0.08310
C322        C  0.27769352  0.77913802  0.97198478     0.05350
C323        C  0.25361962  0.81053840  0.94274596    -0.10800
C324        C  0.20463260  0.80619271  0.93634649     0.02850
C325        C  0.18186593  0.76432569  0.94841770    -0.09330
C326        C  0.20631322  0.72974245  0.97387104     0.05340
C327        C  0.25435514  0.73780529  0.98770132    -0.08750
H328        H  0.27110327  0.84290366  0.93198168     0.10940
H329        H  0.14366935  0.76083895  0.94269828     0.08470
H330        H  0.27244799  0.71345988  0.01116090     0.08310
C331        C  0.71933798  0.21082600  0.01149635     0.05350
C332        C  0.74500422  0.18237246  0.04261712    -0.10800
C333        C  0.79257473  0.19231309  0.05313876     0.02850
C334        C  0.81261112  0.23463099  0.03807821    -0.09330
C335        C  0.78728015  0.26489512  0.00827060     0.05340
C336        C  0.74032771  0.25266956  0.99383473    -0.08750
H337        H  0.72908497  0.14998923  0.05535443     0.10940
H338        H  0.84970433  0.24223436  0.04633477     0.08470
H339        H  0.72110854  0.27453023  0.96881257     0.08310
C340        C  0.79153496  0.72803450  0.01455994     0.05350
C341        C  0.82193279  0.74859317  0.04785273    -0.10800
C342        C  0.81404508  0.79430854  0.06370860     0.02850
C343        C  0.77265167  0.81814874  0.04938938    -0.09330
C344        C  0.74087614  0.79791183  0.01685196     0.05340
C345        C  0.75060362  0.75256371  0.99870117    -0.08750
H346        H  0.85352566  0.72972186  0.05936845     0.10940
H347        H  0.76660172  0.85387269  0.06137748     0.08470
H348        H  0.72731003  0.73705899  0.97227277     0.08310
C349        C  0.83328131  0.65044535  0.98772669    -0.11050
C350        C  0.80751361  0.68374013  0.99529143    -0.12610
C351        C  0.81318434  0.30579864  0.99137225    -0.11050
C352        C  0.84262610  0.33649896  0.98491622    -0.12610
C353        C  0.14823159  0.65946617  0.99420987    -0.11050
C354        C  0.17847822  0.68941868  0.98854705    -0.12610
C355        C  0.16234889  0.35015342  0.99438316    -0.11050
C356        C  0.19244396  0.32007038  0.00121487    -0.12610
C357        C  0.67451772  0.19112925  0.99532072    -0.11050
C358        C  0.64274114  0.16260604  0.99006145    -0.12610
C359        C  0.32186181  0.79735184  0.99099104    -0.11050
C360        C  0.35202855  0.82703163  0.99829038    -0.12610
C361        C  0.70024545  0.82602283  0.00165681    -0.11050
C362        C  0.66811697  0.85392080  0.99473815    -0.12610
C363        C  0.32732268  0.14253746  0.00071166    -0.11050
C364        C  0.29810022  0.17382040  0.00623623    -0.12610
C365        C  0.68432262  0.99863877  0.80957965    -0.11050
C366        C  0.65027091  0.00499066  0.83493272    -0.12610
C367        C  0.01110611  0.34648206  0.82996671    -0.11050
C368        C  0.01151520  0.31579408  0.80008113    -0.12610
C369        C  0.30268559  0.99908836  0.81066251    -0.11050
C370        C  0.33321528  0.99237042  0.84048680    -0.12610
C371        C  0.00602726  0.68363417  0.80368863    -0.11050
C372        C  0.99836059  0.65327427  0.83275863    -0.12610
C373        C  0.34230688  0.97268776  0.15495799    -0.11050
C374        C  0.31214570  0.97819141  0.18531255    -0.12610
C375        C  0.98295801  0.68783267  0.17525420    -0.11050
C376        C  0.97893862  0.65625395  0.14645433    -0.12610
C377        C  0.68822161  0.01478759  0.17622978    -0.11050
C378        C  0.65748700  0.00900123  0.14665973    -0.12610
C379        C  0.82431294  0.99405403  0.69896501    -0.11050
C380        C  0.85061468  0.00030837  0.66545250    -0.12790
C381        C  0.00756598  0.18484112  0.67627880    -0.11050
C382        C  0.00792660  0.15650299  0.64407171    -0.12610
C383        C  0.18949419  0.99936566  0.67063722    -0.11050
C384        C  0.16169604  0.99311127  0.63826642    -0.12610
C385        C  0.00036721  0.84466909  0.65387989    -0.11050
C386        C  0.00670040  0.81619993  0.68509779    -0.12610
C387        C  0.16917605  0.98512905  0.29521017    -0.11050
C388        C  0.13729455  0.98058289  0.32402528    -0.12610
C389        C  0.96784531  0.83558986  0.34027276    -0.11050
C390        C  0.97359838  0.80675978  0.30905925    -0.12610
C391        C  0.79054948  0.00228561  0.32175132    -0.11050
C392        C  0.81946394  0.99299094  0.35212263    -0.12610
C393        C  0.99448665  0.31492767  0.18227268    -0.11050
C394        C  0.98892007  0.34298171  0.15003250    -0.12610
C395        C  0.99298549  0.18007438  0.30207456    -0.11050
C396        C  0.98614727  0.14806005  0.33009318    -0.12610
C397        C  0.85214842  0.82122449  0.08757748    -0.14210
C398        C  0.89805022  0.81700630  0.07356784    -0.29390
H399        H  0.84096464  0.85363544  0.10470217     0.14810
H400        H  0.91071510  0.78506706  0.05678762     0.15390
C401        C  0.82018544  0.11111645  0.05250140    -0.14210
C402        C  0.82523459  0.15514521  0.06896151    -0.29390
H403        H  0.78649818  0.09821902  0.03861190     0.14810
H404        H  0.85991124  0.16611768  0.08250245     0.15390
C405        C  0.18696776  0.88568472  0.96138077    -0.14210
C406        C  0.17529937  0.84862691  0.93405590    -0.29390
H407        H  0.22253820  0.89072082  0.97586820     0.14810
H408        H  0.13866550  0.84491616  0.92165482     0.15390
C409        C  0.13427616  0.17837918  0.04406268    -0.14210
C410        C  0.11296130  0.18255771  0.00131136    -0.29390
H411        H  0.12679616  0.14853549  0.06692234     0.14810
H412        H  0.12243758  0.21000161  0.97618815     0.15390
C413        C  0.82647535  0.93354567  0.90213345    -0.14210
C414        C  0.83233450  0.92110252  0.85622949    -0.29390
H415        H  0.79252709  0.94640915  0.91521907     0.14810
H416        H  0.86692593  0.90769070  0.84510630     0.15390
C417        C  0.97550907  0.15858327  0.84507023    -0.14210
C418        C  0.95036768  0.11880062  0.84217418    -0.29390
H419        H  0.99164387  0.16888845  0.87869518     0.14810
H420        H  0.93508733  0.10664680  0.80893853     0.15390
C421        C  0.10728102  0.03662132  0.82139557    -0.14210
C422        C  0.14561001  0.06509791  0.82131333    -0.29390
H423        H  0.09838338  0.01545962  0.79052749     0.14810
H424        H  0.15436843  0.08524335  0.85295139     0.15390
C425        C  0.06046308  0.83477820  0.84479219    -0.14210
C426        C  0.03433907  0.82692681  0.88385704    -0.29390
H427        H  0.07512272  0.86960088  0.83824208     0.14810
H428        H  0.01809768  0.79310695  0.89140840     0.15390
C429        C  0.18819104  0.08826666  0.16210115    -0.14210
C430        C  0.19144284  0.07262262  0.11722509    -0.29390
H431        H  0.15434806  0.10272530  0.17339034     0.14810
H432        H  0.22521456  0.06026525  0.10311527     0.15390
C433        C  0.08117465  0.87489255  0.18346614    -0.14210
C434        C  0.08321492  0.82804314  0.17677255    -0.29390
H435        H  0.07352832  0.88960692  0.21805636     0.14810
H436        H  0.09379637  0.81529911  0.14195390     0.15390
C437        C  0.89085244  0.03611000  0.19348122    -0.14210
C438        C  0.85322471  0.06306241  0.18124929    -0.29390
H439        H  0.89465493  0.02052672  0.22843401     0.14810
H440        H  0.85102253  0.07675110  0.14530136     0.15390
C441        C  0.07052071  0.18027518  0.16142226    -0.14210
C442        C  0.03135541  0.17870049  0.13364422    -0.29390
H443        H  0.09427095  0.15044034  0.16305309     0.14810
H444        H  0.00620470  0.20774535  0.13226873     0.15390
loop_ 
_geom_bond_atom_site_label_1 
_geom_bond_atom_site_label_2 
_geom_bond_distance 
_geom_bond_site_symmetry_2 
_ccdc_geom_bond_type 
O1          Zr37   2.420       .  S
O1           C12   1.288   1_655  A
O2          Zr36   2.410       .  S
O2           C13   1.289       .  A
O3           Zr9   2.413   1_655  S
O3           C14   1.286       .  A
O4           Zr9   2.432       .  S
O4           C15   1.293       .  A
O5          Zr39   2.419   1_554  S
O5           C15   1.287       .  A
O6          Zr38   2.416   1_545  S
O6           C14   1.289       .  A
O7           Zr9   2.434   1_565  S
O7           C13   1.291       .  A
O8           Zr9   2.416       .  S
O8           C12   1.290       .  A
Zr9          O10   2.333   1_545  S
Zr9          O11   2.337   1_455  S
Zr9          O19   2.297       .  S
Zr9          O17   2.337   1_445  S
O10         Zr36   2.339       .  S
O10         Zr39   2.351   1_564  S
O11         Zr37   2.305       .  S
O11         Zr38   2.320   1_545  S
C12         C442   1.447       .  S
C13         C433   1.469       .  S
C14         C437   1.448       .  S
C15         C430   1.464       .  S
H16          O17   0.966       .  S
O17         Zr36   2.334   1_655  S
O17         Zr38   2.349       .  S
H18          O19   0.958       .  S
O19         Zr37   2.321   1_455  S
O19         Zr39   2.287   1_554  S
O20         Zr36   2.395   1_556  S
O20          C43   1.283       .  A
O21         Zr37   2.411   1_556  S
O21          C44   1.291       .  A
O22         Zr38   2.391       .  S
O22          C45   1.286       .  A
O23         Zr39   2.409   1_565  S
O23          C46   1.285       .  A
O24         Zr39   2.414       .  S
O24          C47   1.289       .  A
O25         Zr38   2.413   1_545  S
O25          C48   1.285       .  A
O26         Zr40   2.389       .  S
O26          C49   1.285       .  A
O27         Zr40   2.424   1_445  S
O27          C50   1.287       .  A
O28         Zr38   2.456   1_556  S
O28          C49   1.294       .  A
O29         Zr39   2.404       .  S
O29          C50   1.287       .  A
O30         Zr36   2.456   1_655  S
O30          C45   1.295       .  A
O31         Zr37   2.414       .  S
O31          C48   1.289       .  A
O32         Zr37   2.406   1_456  S
O32          C47   1.284       .  A
O33         Zr36   2.426   1_556  S
O33          C46   1.292       .  A
O34         Zr40   2.429   1_455  S
O34          C43   1.292       .  A
O35         Zr40   2.398   1_545  S
O35          C44   1.282       .  A
Zr36         O42   2.333   1_454  S
Zr36         O54   2.346   1_554  S
Zr37         O41   2.322   1_654  S
Zr37         O52   2.328   1_554  S
Zr38         O42   2.328   1_554  S
Zr38         O52   2.327   1_564  S
Zr39         O41   2.323       .  S
Zr39         O54   2.314   1_545  S
Zr40         O41   2.330   1_665  S
Zr40         O42   2.328       .  S
Zr40         O54   2.306   1_655  S
Zr40         O52   2.340   1_565  S
C43         C426   1.440       .  S
C44         C418   1.452       .  S
C45         C398   1.469       .  S
C46         C405   1.444       .  S
C47         C410   1.436   1_556  S
C48         C401   1.456       .  S
C49         C413   1.470       .  S
C50         C421   1.459       .  S
H51          O52   0.966       .  S
H53          O54   0.963       .  S
C55          C56   1.395       .  A
C55          C60   1.428   1_455  A
C55         C395   1.460   1_455  S
C56          C57   1.391       .  A
C56          H61   1.087       .  S
C57         C441   1.457       .  S
C57          C58   1.388       .  A
C58          C59   1.393       .  A
C58          H62   1.087       .  S
C59          C60   1.428   1_455  A
C59         C393   1.456   1_455  S
C60          H63   1.083       .  S
O64         Zr76   2.435       .  S
O64          C66   1.284       .  A
O65        Zr102   2.484   1_545  S
O65          C66   1.298       .  A
C66         C396   1.459       .  S
O67         Zr79   2.442       .  S
O67          C69   1.286       .  A
O68        Zr103   2.448       .  S
O68          C69   1.291       .  A
C69         C384   1.445       .  S
O70         Zr79   2.425       .  S
O70          C72   1.283       .  A
O71        Zr102   2.475   1_455  S
O71          C72   1.297       .  A
C72         C388   1.449       .  S
O73         Zr76   2.433   1_455  S
O73          C75   1.285       .  A
O74        Zr103   2.468   1_545  S
O74          C75   1.295       .  A
C75         C382   1.450       .  S
Zr76         O82   2.374   1_655  S
Zr76         O83   2.375   1_655  S
Zr76        O106   2.375       .  S
Zr76        O108   2.371       .  S
Zr76         O77   2.434   1_655  S
Zr76         O78   2.436       .  S
O77         H120   0.990       .  S
O78         H119   0.990       .  S
O78         H123   0.990       .  S
Zr79         O83   2.371   1_565  S
Zr79         O82   2.379   1_565  S
Zr79        O107   2.376       .  S
Zr79        O109   2.368       .  S
Zr79         O80   2.436   1_565  S
Zr79         O81   2.435       .  S
O80         H121   0.990       .  S
O80         H124   0.990       .  S
O81         H114   0.990       .  S
O82        Zr102   2.390   1_445  S
O83        Zr103   2.387   1_545  S
O83         H110   0.966       .  S
O84         Zr96   2.442   1_545  S
O84          C86   1.286       .  A
O85        Zr103   2.446   1_645  S
O85          C86   1.290       .  A
C86         C380   1.444       .  S
O87         Zr99   2.438       .  S
O87          C89   1.286       .  A
O88        Zr102   2.462       .  S
O88          C89   1.294       .  A
C89         C389   1.449       .  S
O90         Zr99   2.424       .  S
O90          C92   1.283       .  A
O91        Zr103   2.458       .  S
O91          C92   1.293   1_455  A
C92         C385   1.440   1_655  S
O93         Zr96   2.415       .  S
O93          C95   1.281       .  A
O94        Zr102   2.461       .  S
O94          C95   1.295       .  A
C95         C392   1.437       .  S
Zr96        O104   2.362       .  S
Zr96        O105   2.374       .  S
Zr96        O108   2.378   1_565  S
Zr96        O106   2.367   1_565  S
Zr96         O97   2.437       .  S
Zr96         O98   2.434   1_565  S
O97         H117   0.990       .  S
O97         H122   0.990       .  S
O98         H118   0.990       .  S
Zr99        O105   2.365       .  S
Zr99        O104   2.371       .  S
Zr99        O109   2.375   1_655  S
Zr99        O107   2.366   1_655  S
Zr99        O100   2.434       .  S
Zr99        O101   2.435   1_655  S
O100        H116   0.990       .  S
O101        H115   0.990       .  S
O101        H125   0.990       .  S
Zr102       O105   2.390       .  S
Zr102       O107   2.394   1_655  S
Zr102       O108   2.394   1_565  S
Zr103       O104   2.390   1_455  S
Zr103       O106   2.385   1_465  S
Zr103       O109   2.387       .  S
O104        H112   0.966       .  S
O107        H111   0.966       .  S
O108        H113   0.966       .  S
C126        C127   1.389       .  A
C126        C131   1.410       .  A
C126        C391   1.435       .  S
C127        C128   1.388       .  A
C127        H132   1.086       .  S
C128        C438   1.464       .  S
C128        C129   1.396       .  A
C129        C130   1.399       .  A
C129        H133   1.086       .  S
C130        C131   1.413       .  A
C130        C377   1.442       .  S
C131        H134   1.083   1_545  S
C135        C136   1.400   1_655  A
C135        C140   1.418       .  A
C135        C375   1.455       .  S
C136        C137   1.400       .  A
C136        H141   1.085       .  S
C137        C434   1.483       .  S
C137        C138   1.398       .  A
C138        C139   1.394   1_455  A
C138        H142   1.082       .  S
C139        C140   1.417       .  A
C139        C390   1.450       .  S
C140        H143   1.083       .  S
C144        C145   1.393       .  A
C144        C149   1.418   1_545  A
C144        C374   1.447   1_545  S
C145        C146   1.392       .  A
C145        H150   1.085       .  S
C146        C429   1.469       .  S
C146        C147   1.396       .  A
C147        C148   1.396       .  A
C147        H151   1.086       .  S
C148        C149   1.419   1_545  A
C148        C387   1.451   1_545  S
C149        H152   1.083       .  S
C153        C154   1.395       .  A
C153        C158   1.416       .  A
C153        C386   1.441       .  S
C154        C155   1.390       .  A
C154        H159   1.086       .  S
C155        C425   1.461       .  S
C155        C156   1.392       .  A
C156        C157   1.390       .  A
C156        H160   1.086       .  S
C157        C158   1.414       .  A
C157        C371   1.441       .  S
C158        H161   1.083   1_455  S
C162        C163   1.393       .  A
C162        C167   1.417       .  A
C162        C383   1.445   1_545  S
C163        C164   1.391       .  A
C163        H168   1.086       .  S
C164        C422   1.461       .  S
C164        C165   1.393       .  A
C165        C166   1.395       .  A
C165        H169   1.086       .  S
C166        C167   1.417       .  A
C166        C369   1.449   1_545  S
C167        H170   1.083   1_545  S
C171        C172   1.424       .  A
C171        C176   1.396   1_455  A
C171        C381   1.450       .  S
C172        C173   1.421       .  A
C172        H177   1.083       .  S
C173        C174   1.384   1_455  A
C173        C368   1.444       .  S
C174        C175   1.381       .  A
C174        H178   1.088       .  S
C175        C417   1.451       .  S
C175        C176   1.393       .  A
C176        H179   1.084       .  S
C180        C181   1.401       .  A
C180        C185   1.410       .  A
C180        C379   1.448       .  S
C181        C182   1.403       .  A
C181        H186   1.085       .  S
C182        C414   1.477       .  S
C182        C183   1.394       .  A
C183        C184   1.395       .  A
C183        H187   1.084       .  S
C184        C185   1.409       .  A
C184        C365   1.437       .  S
C185        H188   1.084   1_565  S
O189       Zr201   2.440       .  S
O189        C191   1.285       .  A
O190       Zr227   2.458       .  S
O190        C191   1.293       .  A
C191        C358   1.448       .  S
O192       Zr204   2.435       .  S
O192        C194   1.285       .  A
O193       Zr228   2.461   1_554  S
O193        C194   1.294       .  A
C194        C373   1.448       .  S
O195       Zr204   2.430   1_545  S
O195        C197   1.284       .  A
O196       Zr227   2.448   1_554  S
O196        C197   1.291       .  A
C197        C378   1.439       .  S
O198       Zr201   2.423       .  S
O198        C200   1.283       .  A
O199       Zr228   2.493   1_545  S
O199        C200   1.300       .  A
C200        C363   1.457   1_556  S
Zr201       O207   2.371   1_556  S
Zr201       O208   2.379   1_556  S
Zr201       O231   2.374       .  S
Zr201       O233   2.368       .  S
Zr201       O202   2.434   1_556  S
Zr201       O203   2.436       .  S
O202        H245   0.990       .  S
O203        H244   0.990       .  S
O203        H248   0.990       .  S
Zr204       O208   2.372   1_565  S
Zr204       O207   2.374   1_565  S
Zr204       O232   2.370       .  S
Zr204       O234   2.367       .  S
Zr204       O205   2.436   1_565  S
Zr204       O206   2.434       .  S
O205        H246   0.990       .  S
O205        H249   0.990       .  S
O206        H239   0.990       .  S
O207       Zr227   2.386   1_554  S
O208       Zr228   2.393   1_544  S
O208        H235   0.966       .  S
O209       Zr221   2.430       .  S
O209        C211   1.284       .  A
O210       Zr228   2.464       .  S
O210        C211   1.295       .  A
C211        C370   1.447       .  S
O212       Zr224   2.443       .  S
O212        C214   1.287       .  A
O213       Zr227   2.461   1_565  S
O213        C214   1.293       .  A
C214        C362   1.452       .  S
O215       Zr224   2.424       .  S
O215        C217   1.282       .  A
O216       Zr228   2.472       .  S
O216        C217   1.297       .  A
C217        C360   1.445       .  S
O218       Zr221   2.430   1_545  S
O218        C220   1.284       .  A
O219       Zr227   2.442       .  S
O219        C220   1.290       .  A
C220        C366   1.436       .  S
Zr221       O229   2.370       .  S
Zr221       O230   2.373       .  S
Zr221       O233   2.370   1_565  S
Zr221       O231   2.372   1_565  S
Zr221       O222   2.436       .  S
Zr221       O223   2.434   1_565  S
O222        H242   0.990       .  S
O222        H247   0.990       .  S
O223        H243   0.990       .  S
Zr224       O230   2.368       .  S
Zr224       O229   2.379       .  S
Zr224       O234   2.374   1_556  S
Zr224       O232   2.365   1_556  S
Zr224       O225   2.434       .  S
Zr224       O226   2.435   1_556  S
O225        H241   0.990       .  S
O226        H240   0.990       .  S
O226        H250   0.990       .  S
Zr227       O230   2.386   1_545  S
Zr227       O232   2.388   1_546  S
Zr227       O233   2.388       .  S
Zr228       O229   2.397       .  S
Zr228       O231   2.388   1_565  S
Zr228       O234   2.390   1_556  S
O229        H237   0.966       .  S
O232        H236   0.966       .  S
O233        H238   0.966       .  S
O251       Zr263   2.426       .  S
O251        C253   1.282       .  A
O252       Zr289   2.485   1_455  S
O252        C253   1.299       .  A
C253        C355   1.454       .  S
O254       Zr266   2.452       .  S
O254        C256   1.289       .  A
O255       Zr290   2.456   1_554  S
O255        C256   1.293       .  A
C256        C376   1.453       .  S
O257       Zr266   2.435       .  S
O257        C259   1.285       .  A
O258       Zr289   2.486   1_554  S
O258        C259   1.300       .  A
C259        C394   1.457       .  S
O260       Zr263   2.426       .  S
O260        C262   1.283       .  A
O261       Zr290   2.464   1_455  S
O261        C262   1.294       .  A
C262        C353   1.445       .  S
Zr263       O269   2.375   1_556  S
Zr263       O270   2.371   1_556  S
Zr263       O293   2.372       .  S
Zr263       O295   2.370       .  S
Zr263       O264   2.434   1_556  S
Zr263       O265   2.436       .  S
O264        H307   0.990       .  S
O265        H306   0.990       .  S
O265        H310   0.990       .  S
Zr266       O270   2.371   1_655  S
Zr266       O269   2.380   1_655  S
Zr266       O294   2.375       .  S
Zr266       O296   2.370       .  S
Zr266       O267   2.436   1_655  S
Zr266       O268   2.434       .  S
O267        H308   0.990       .  S
O267        H311   0.990       .  S
O268        H301   0.990       .  S
O269       Zr289   2.394   1_454  S
O270       Zr290   2.390   1_454  S
O270        H297   0.966       .  S
O271       Zr283   2.416       .  S
O271        C273   1.280       .  A
O272       Zr290   2.466       .  S
O272        C273   1.295       .  A
C273        C372   1.441       .  S
O274       Zr286   2.437       .  S
O274        C276   1.286       .  A
O275       Zr289   2.468       .  S
O275        C276   1.296       .  A
C276        C352   1.450       .  S
O277       Zr286   2.445       .  S
O277        C279   1.287       .  A
O278       Zr290   2.445       .  S
O278        C279   1.291       .  A
C279        C349   1.444       .  S
O280       Zr283   2.408   1_455  S
O280        C282   1.279       .  A
O281       Zr289   2.488   1_455  S
O281        C282   1.300       .  A
C282        C367   1.448       .  S
Zr283       O291   2.365       .  S
Zr283       O292   2.370       .  S
Zr283       O295   2.369   1_655  S
Zr283       O293   2.369   1_655  S
Zr283       O284   2.436       .  S
Zr283       O285   2.434   1_655  S
O284        H304   0.990       .  S
O284        H309   0.990       .  S
O285        H305   0.990       .  S
Zr286       O292   2.376       .  S
Zr286       O291   2.369       .  S
Zr286       O296   2.372   1_556  S
Zr286       O294   2.370   1_556  S
Zr286       O287   2.434       .  S
Zr286       O288   2.435   1_556  S
O287        H303   0.990       .  S
O288        H302   0.990       .  S
O288        H312   0.990       .  S
Zr289       O292   2.393       .  S
Zr289       O294   2.400   1_556  S
Zr289       O295   2.389   1_655  S
Zr290       O291   2.389       .  S
Zr290       O293   2.382   1_655  S
Zr290       O296   2.390   1_556  S
O291        H299   0.966       .  S
O294        H298   0.966       .  S
O295        H300   0.966       .  S
C313        C314   1.395       .  A
C313        C318   1.428       .  A
C313        C364   1.460       .  S
C314        C315   1.392       .  A
C314        H319   1.085       .  S
C315        C409   1.447       .  S
C315        C316   1.380       .  A
C316        C317   1.387       .  A
C316        H320   1.088       .  S
C317        C318   1.426       .  A
C317        C356   1.449       .  S
C318        H321   1.083   1_554  S
C322        C323   1.389       .  A
C322        C327   1.417       .  A
C322        C359   1.443       .  S
C323        C324   1.389       .  A
C323        H328   1.086       .  S
C324        C406   1.462       .  S
C324        C325   1.393       .  A
C325        C326   1.397       .  A
C325        H329   1.086       .  S
C326        C327   1.419       .  A
C326        C354   1.447       .  S
C327        H330   1.083   1_556  S
C331        C332   1.393       .  A
C331        C336   1.418   1_554  A
C331        C357   1.447   1_554  S
C332        C333   1.393       .  A
C332        H337   1.085       .  S
C333        C402   1.468       .  S
C333        C334   1.395       .  A
C334        C335   1.396       .  A
C334        H338   1.086       .  S
C335        C336   1.419   1_554  A
C335        C351   1.452   1_554  S
C336        H339   1.083       .  S
C340        C341   1.395       .  A
C340        C345   1.414   1_554  A
C340        C350   1.444   1_554  S
C341        C342   1.394       .  A
C341        H346   1.084       .  S
C342        C397   1.475       .  S
C342        C343   1.402       .  A
C343        C344   1.401       .  A
C343        H347   1.085       .  S
C344        C345   1.415   1_554  A
C344        C361   1.455       .  S
C345        H348   1.083       .  S
C349        C350   1.211       .  T
C351        C352   1.215       .  T
C353        C354   1.212       .  T
C355        C356   1.217   1_556  T
C357        C358   1.213       .  T
C359        C360   1.212       .  T
C361        C362   1.216   1_554  T
C363        C364   1.220       .  T
C365        C366   1.206   1_565  T
C367        C368   1.214       .  T
C369        C370   1.213       .  T
C371        C372   1.210   1_455  T
C373        C374   1.213       .  T
C375        C376   1.216       .  T
C377        C378   1.208       .  T
C379        C380   1.211   1_565  T
C381        C382   1.214       .  T
C383        C384   1.211       .  T
C385        C386   1.209       .  T
C387        C388   1.214       .  T
C389        C390   1.214       .  T
C391        C392   1.207   1_545  T
C393        C394   1.219       .  T
C395        C396   1.221       .  T
C397        C398   1.351       .  D
C397        H399   1.088       .  S
C398        H400   1.085       .  S
C401        C402   1.344       .  D
C401        H403   1.085       .  S
C402        H404   1.088       .  S
C405        C406   1.346       .  D
C405        H407   1.085       .  S
C406        H408   1.088       .  S
C409        C410   1.349       .  D
C409        H411   1.086       .  S
C410        H412   1.087   1_554  S
C413        C414   1.351       .  D
C413        H415   1.084       .  S
C414        H416   1.088       .  S
C417        C418   1.335       .  D
C417        H419   1.089       .  S
C418        H420   1.086       .  S
C421        C422   1.345       .  D
C421        H423   1.087       .  S
C422        H424   1.088       .  S
C425        C426   1.341       .  D
C425        H427   1.088       .  S
C426        H428   1.086       .  S
C429        C430   1.344       .  D
C429        H431   1.082       .  S
C430        H432   1.085       .  S
C433        C434   1.348       .  D
C433        H435   1.083       .  S
C434        H436   1.088       .  S
C437        C438   1.348       .  D
C437        H439   1.085       .  S
C438        H440   1.087       .  S
C441        C442   1.347       .  D
C441        H443   1.080       .  S
C442        H444   1.087       .  S
