geometry optimzed in LAMMPS
_audit_creation_date              2020-11-30 
_audit_creation_method            'lammps2cif' 
_symmetry_space_group_name_H-M    'P1' 
_symmetry_Int_Tables_number       1 
_symmetry_cell_setting            triclinic 
loop_ 
_symmetry_equiv_pos_as_xyz 
  x,y,z 
_cell_length_a                    25.379729228206337 
_cell_length_b                    25.346838949334526 
_cell_length_c                    25.378060590025115 
_cell_angle_alpha                 89.97383362751079 
_cell_angle_beta                  89.72632547026642 
_cell_angle_gamma                 90.25437777693409 
loop_ 
_atom_site_label 
_atom_site_type_symbol 
_atom_site_fract_x 
_atom_site_fract_y 
_atom_site_fract_z 
_atom_site_charge 
C1          C  0.73035776  0.72683115  0.99496589     0.02850
C2          C  0.74396703  0.67355147  0.00293186    -0.13300
C3          C  0.70522485  0.63416130  0.00084233     0.00350
C4          C  0.65257896  0.64801472  0.99316112    -0.11820
C5          C  0.63846411  0.70050687  0.98486280     0.02840
C6          C  0.67744540  0.73962995  0.98441994    -0.11240
H7          H  0.78458895  0.66249937  0.00953319     0.08440
H8          H  0.62245224  0.61751616  0.99276061     0.05970
H9          H  0.66639877  0.77979574  0.97530669     0.05810
C10         C  0.73026002  0.31851979  0.00013165     0.02850
C11         C  0.74347094  0.37207159  0.00703352    -0.13300
C12         C  0.70441112  0.41065052  0.00466737     0.00350
C13         C  0.65167501  0.39566147  0.99960807    -0.11820
C14         C  0.63745325  0.34259485  0.99415665     0.02840
C15         C  0.67689052  0.30397970  0.99398000    -0.11240
H16         H  0.78412988  0.38393885  0.01248021     0.08440
H17         H  0.62153618  0.42586087  0.99838777     0.05970
H18         H  0.66618083  0.26297645  0.98814207     0.05810
C19         C  0.32230034  0.32212418  0.01022843     0.02850
C20         C  0.31071781  0.37525110  0.02170124    -0.13300
C21         C  0.34973870  0.41413748  0.01718884     0.00350
C22         C  0.40146557  0.39973631  0.00529386    -0.11820
C23         C  0.41441463  0.34692169  0.99596654     0.02840
C24         C  0.37478536  0.30823548  0.99812255    -0.11240
H25         H  0.27132722  0.38673354  0.03332980     0.08440
H26         H  0.43179118  0.42995027  0.00301149     0.05970
H27         H  0.38484273  0.26760784  0.98967460     0.05810
C28         C  0.32418476  0.73042889  0.00864778     0.02850
C29         C  0.37667789  0.74270235  0.99440760    -0.13300
C30         C  0.41553252  0.70355366  0.99462862     0.00350
C31         C  0.40144249  0.65124779  0.00494281    -0.11820
C32         C  0.34935319  0.63777998  0.01660993     0.02840
C33         C  0.31110635  0.67726510  0.01988020    -0.11240
H34         H  0.38757013  0.78225589  0.98250637     0.08440
H35         H  0.43120320  0.62067426  0.00354661     0.05970
H36         H  0.27121493  0.66614117  0.03051681     0.05810
C37         C  0.73185220  0.01944311  0.70374808     0.02850
C38         C  0.67850287  0.01041867  0.71741482    -0.13300
C39         C  0.63943256  0.01039012  0.67844642     0.00350
C40         C  0.65366156  0.01985497  0.62602833    -0.11820
C41         C  0.70611975  0.02878738  0.61187012     0.02840
C42         C  0.74504787  0.02971045  0.65070873    -0.11240
H43         H  0.66743871  0.00296586  0.75803460     0.08440
H44         H  0.62354297  0.02022586  0.59582828     0.05970
H45         H  0.78529661  0.03890744  0.63958030     0.05810
C46         C  0.32268208  0.01512921  0.70558731     0.02850
C47         C  0.30777581  0.01780459  0.65223205    -0.13300
C48         C  0.34610755  0.01732473  0.61239801     0.00350
C49         C  0.39934805  0.01377683  0.62573301    -0.11820
C50         C  0.41503997  0.01111693  0.67852621     0.02840
C51         C  0.37660005  0.01253570  0.71841739    -0.11240
H52         H  0.26652600  0.02020234  0.64169457     0.08440
H53         H  0.42885295  0.01326397  0.59467098     0.05970
H54         H  0.38864779  0.01140944  0.75927889     0.05810
C55         C  0.32093447  0.02211816  0.29601471     0.02850
C56         C  0.37384631  0.03189763  0.28172410    -0.13300
C57         C  0.41252077  0.03789433  0.32049927     0.00350
C58         C  0.39812876  0.03563757  0.37374760    -0.11820
C59         C  0.34566167  0.02737096  0.38878098     0.02840
C60         C  0.30734028  0.01940708  0.34999608    -0.11240
H61         H  0.38489678  0.03618632  0.24068046     0.08440
H62         H  0.42804231  0.04034660  0.40379177     0.05970
H63         H  0.26687095  0.01228678  0.36189379     0.05810
C64         C  0.72924955  0.04060462  0.29664583     0.02850
C65         C  0.74171361  0.03745403  0.35053168    -0.13300
C66         C  0.70197157  0.04110444  0.38872829     0.00350
C67         C  0.64926142  0.04309168  0.37315070    -0.11820
C68         C  0.63585629  0.04398108  0.31983404     0.02840
C69         C  0.67582649  0.04367275  0.28160500    -0.11240
H70         H  0.78218444  0.03278033  0.36292819     0.08440
H71         H  0.61838663  0.04415620  0.40284010     0.05970
H72         H  0.66525654  0.04608035  0.24036346     0.05810
C73         C  0.02042801  0.32052015  0.70225439     0.02850
C74         C  0.01847102  0.37421460  0.71687186    -0.13300
C75         C  0.01835330  0.41378273  0.67824930     0.00350
C76         C  0.02009648  0.39966324  0.62497343    -0.11820
C77         C  0.02251990  0.34661347  0.60987272     0.02840
C78         C  0.02396950  0.30718865  0.64848965    -0.11240
H79         H  0.01632532  0.38517559  0.75809111     0.08440
H80         H  0.01933929  0.43018075  0.59500965     0.05970
H81         H  0.02720795  0.26628249  0.63661596     0.05810
C82         C  0.02711631  0.73122203  0.70403631     0.02850
C83         C  0.02676660  0.67766657  0.71892027    -0.13300
C84         C  0.02375709  0.63815221  0.68031263     0.00350
C85         C  0.02201647  0.65240514  0.62708262    -0.11820
C86         C  0.02329530  0.70544978  0.61173685     0.02840
C87         C  0.02589764  0.74489694  0.65031096    -0.11240
H88         H  0.02734819  0.66690718  0.76024368     0.08440
H89         H  0.01941130  0.62185393  0.59726820     0.05970
H90         H  0.02603322  0.78604542  0.63867725     0.05810
C91         C  0.03030087  0.32053864  0.29333294     0.02850
C92         C  0.03196412  0.30575911  0.34677120    -0.13300
C93         C  0.02970279  0.34443051  0.38612958     0.00350
C94         C  0.02642144  0.39759425  0.37193468    -0.11820
C95         C  0.02368823  0.41274014  0.31900378     0.02840
C96         C  0.02609634  0.37413469  0.27956739    -0.11240
H97         H  0.03357986  0.26443134  0.35758499     0.08440
H98         H  0.02463268  0.42744633  0.40251298     0.05970
H99         H  0.02388590  0.38558479  0.23848943     0.05810
C100        C  0.02673506  0.72996169  0.29501430     0.02850
C101        C  0.02426127  0.74397144  0.34871568    -0.13300
C102        C  0.02167801  0.70477139  0.38757732     0.00350
C103        C  0.02215118  0.65166615  0.37272911    -0.11820
C104        C  0.02335751  0.63701496  0.31959184     0.02840
C105        C  0.02573120  0.67624856  0.28071548    -0.11240
H106        H  0.02282053  0.78511907  0.36015682     0.08440
H107        H  0.02040023  0.62137167  0.40291202     0.05970
H108        H  0.02604247  0.66506380  0.23950711     0.05810
O109        O  0.94124584  0.87364085  0.99508810    -0.86770
O110        O  0.93977157  0.17368420  0.99959003    -0.86930
O111        O  0.87559210  0.02440715  0.08573261    -0.88600
O112        O  0.87619630  0.02592127  0.91492414    -0.87360
O113        O  0.94027168  0.02661031  0.85089571    -0.86950
O114        O  0.93883586  0.02711079  0.14992735    -0.88320
O115        O  0.87613058  0.10902416  0.00030012    -0.86800
O116        O  0.87724531  0.93705894  0.99610574    -0.86380
Zr117      Zr  0.91966423  0.02385556  0.99995180     2.84310
O118        O  0.97267508  0.07830912  0.94681819    -1.08360
O119        O  0.97176607  0.97048393  0.05349220    -1.09090
C120        C  0.89278394  0.88851414  0.99388882     1.06340
C121        C  0.89129865  0.15767153  0.00049786     1.06280
C122        C  0.89042281  0.02637963  0.13434814     1.09270
C123        C  0.89162000  0.02679791  0.86643309     1.07050
H124        H  0.95019330  0.09998221  0.07484416     0.32600
O125        O  0.97224067  0.07800612  0.05294805    -1.29310
H126        H  0.95140985  0.94985046  0.92334480     0.32280
O127        O  0.97297671  0.97168647  0.94583152    -1.30990
O128        O  0.11257978  0.17370558  0.00647131    -0.86760
O129        O  0.11020790  0.87454426  0.00211966    -0.88260
O130        O  0.02760659  0.11144438  0.14888336    -0.86840
O131        O  0.02461240  0.11165735  0.84979656    -0.86890
O132        O  0.02683308  0.94106148  0.84887402    -0.86600
O133        O  0.02387368  0.93885829  0.14925247    -0.86400
O134        O  0.17453505  0.02287876  0.08735302    -0.86770
O135        O  0.17624641  0.02303780  0.91519759    -0.86240
O136        O  0.10959455  0.02377427  0.15045771    -0.87300
O137        O  0.11280609  0.02613598  0.85091320    -0.86460
O138        O  0.02453361  0.17550776  0.08477064    -0.86860
O139        O  0.02210260  0.87510896  0.08488219    -0.86580
O140        O  0.03073179  0.87656658  0.91247900    -0.86230
O141        O  0.02706851  0.17548793  0.91387146    -0.86640
O142        O  0.17622813  0.10987895  0.00601380    -0.86930
O143        O  0.17461891  0.93787853  0.00176690    -0.88270
Zr144      Zr  0.02614604  0.13141281  0.99976388     2.83100
Zr145      Zr  0.02566880  0.91863735  0.99915433     2.83500
Zr146      Zr  0.02468300  0.02484628  0.10633402     2.84090
Zr147      Zr  0.02653156  0.02603695  0.89353331     2.83360
Zr148      Zr  0.13227327  0.02442789  0.00086548     2.84220
O149        O  0.07943852  0.97213206  0.94635570    -1.08840
O150        O  0.07854597  0.07795831  0.05330012    -1.08340
C151        C  0.16110533  0.15837006  0.00858718     1.06310
C152        C  0.15883071  0.88923740  0.00252982     1.08930
C153        C  0.02626738  0.15994373  0.13312957     1.06490
C154        C  0.02572697  0.16019380  0.86525656     1.06850
C155        C  0.02949090  0.89255730  0.86409815     1.06430
C156        C  0.02249060  0.89043615  0.13344176     1.05980
C157        C  0.15834670  0.02326532  0.13578860     1.06410
C158        C  0.16110459  0.02446489  0.86666375     1.05920
H159        H  0.09959785  0.94909926  0.07572280     0.32600
O160        O  0.07820163  0.97127479  0.05357484    -1.29940
H161        H  0.10289134  0.10105536  0.92537001     0.32620
O162        O  0.08048618  0.07882369  0.94688920    -1.31330
C163        C  0.06111527  0.85171195  0.21399715    -0.09430
C164        C  0.02275848  0.84930413  0.17443132     0.06760
C165        C  0.98610644  0.80742079  0.17449289    -0.03200
C166        C  0.98818291  0.76900403  0.21399506    -0.07650
C167        C  0.02663780  0.77122745  0.25361784     0.05880
C168        C  0.06375509  0.81285464  0.25302920    -0.02680
Br169      Br  0.12106164  0.81675618  0.30204485    -0.02370
H170        H  0.09002935  0.88331267  0.21374583     0.09750
H171        H  0.95911722  0.73756569  0.21419356     0.07810
Br172      Br  0.93065674  0.80249142  0.12345013    -0.02800
C173        C  0.05917619  0.49689040  0.28233508    -0.09430
C174        C  0.01755066  0.46929059  0.30658332     0.06760
C175        C  0.97418473  0.49755294  0.32657790    -0.03200
C176        C  0.97509009  0.55253503  0.32633010    -0.07650
C177        C  0.01879842  0.58034576  0.30650599     0.05880
C178        C  0.06013254  0.55223969  0.28222781    -0.02680
Br179      Br  0.12125913  0.58717535  0.25406391    -0.02370
H180        H  0.09272236  0.47546646  0.26692741     0.09790
H181        H  0.94277718  0.57376757  0.34447930     0.07810
Br182      Br  0.91418045  0.46286010  0.35765221    -0.02800
C183        C  0.98388625  0.27110936  0.22286457    -0.09430
C184        C  0.03006312  0.27976691  0.25190174     0.06760
C185        C  0.07507912  0.24931697  0.24107470    -0.03200
C186        C  0.07327925  0.21069068  0.20179825    -0.07650
C187        C  0.02682041  0.20118267  0.17371144     0.05880
C188        C  0.98195091  0.23195042  0.18405486    -0.02680
Br189      Br  0.91706149  0.22078703  0.14704454    -0.02370
H190        H  0.94908282  0.29440798  0.23094261     0.09790
H191        H  0.10848863  0.18859580  0.19251136     0.07810
Br192      Br  0.14023508  0.26037383  0.27755368    -0.02800
C193        C  0.06084546  0.73845589  0.47088299    -0.09430
C194        C  0.01714206  0.71765758  0.44415451     0.06760
C195        C  0.97265753  0.70107119  0.47323911    -0.03200
C196        C  0.97402456  0.70134052  0.52817565    -0.07650
C197        C  0.01925225  0.71804229  0.55505731     0.05880
C198        C  0.06221430  0.73867742  0.52614664    -0.02680
Br199      Br  0.12560521  0.76183201  0.56006257    -0.02370
H200        H  0.09533084  0.75105612  0.44883109     0.09790
H201        H  0.94064599  0.68576493  0.55007079     0.07810
Br202      Br  0.91027665  0.67467952  0.43959189    -0.02800
C203        C  0.98538924  0.84555455  0.79097594    -0.09430
C204        C  0.03002422  0.85200858  0.82267444     0.06760
C205        C  0.07426575  0.81979847  0.81411808    -0.03200
C206        C  0.07244467  0.78002314  0.77587992    -0.07650
C207        C  0.02749233  0.77300066  0.74463694     0.05880
C208        C  0.98390830  0.80657512  0.75198808    -0.02680
Br209      Br  0.92090539  0.79972198  0.71098266    -0.02370
H210        H  0.95137746  0.87060191  0.79694704     0.09790
H211        H  0.10664132  0.75533429  0.76958205     0.07810
Br212      Br  0.13934887  0.83206042  0.85022033    -0.02800
C213        C  0.97839918  0.34125690  0.46865515    -0.09430
C214        C  0.02606145  0.33100376  0.44255980     0.06760
C215        C  0.07092449  0.31790017  0.47217360    -0.03200
C216        C  0.06846365  0.31919924  0.52740025    -0.07650
C217        C  0.02164470  0.33352009  0.55326907     0.05880
C218        C  0.97589713  0.34248220  0.52354261    -0.02680
Br219      Br  0.90984095  0.35962565  0.55619946    -0.02370
H220        H  0.94369883  0.35138753  0.44613752     0.09790
H221        H  0.10385494  0.31226151  0.55002403     0.07810
Br222      Br  0.13723233  0.30329830  0.43886329    -0.02800
C223        C  0.97256930  0.55495787  0.68285428    -0.09430
C224        C  0.01988105  0.58151542  0.69378200     0.06760
C225        C  0.06465152  0.55209002  0.70776079    -0.03200
C226        C  0.06250295  0.49676153  0.70688761    -0.07650
C227        C  0.01611925  0.47036676  0.69210088     0.05880
C228        C  0.97040727  0.49986438  0.68203896    -0.02680
Br229      Br  0.90505840  0.46652047  0.66369434    -0.02370
H230        H  0.93794267  0.57722703  0.67192976     0.09790
H231        H  0.09799114  0.47441510  0.71432647     0.07810
Br232      Br  0.13076567  0.58573133  0.72254874    -0.02800
C233        C  0.98929488  0.19616563  0.78173835    -0.09430
C234        C  0.02476292  0.20129471  0.82374318     0.06760
C235        C  0.05864261  0.24544857  0.82491745    -0.03200
C236        C  0.05642889  0.28351339  0.78519128    -0.07650
C237        C  0.02077482  0.27879374  0.74341011     0.05880
C238        C  0.98664803  0.23454596  0.74205273    -0.02680
Br239      Br  0.93316566  0.22591065  0.68942769    -0.02370
H240        H  0.96262459  0.16269015  0.78041261     0.09790
H241        H  0.08349793  0.31666760  0.78647097     0.07810
Br242      Br  0.11165246  0.25412125  0.87723187    -0.02800
C243        C  0.76331114  0.00555547  0.21197726    -0.09430
C244        C  0.77133962  0.03813528  0.25579921     0.06760
C245        C  0.81877390  0.06753219  0.25891122    -0.03200
C246        C  0.85735688  0.06209181  0.21962925    -0.07650
C247        C  0.84897921  0.02956249  0.17563084     0.05880
C248        C  0.80076042  0.00201697  0.17184578    -0.02680
Br249      Br  0.78298064  0.95782507  0.11402486    -0.02370
H250        H  0.72745528  0.98242703  0.20880551     0.09790
H251        H  0.89339596  0.08497139  0.22256159     0.07810
Br252      Br  0.83170072  0.11935231  0.31258236    -0.02800
C253        C  0.49698345  0.00214928  0.28627499    -0.09430
C254        C  0.46870254  0.04504115  0.30674741     0.06760
C255        C  0.49616309  0.09079429  0.32227585    -0.03200
C256        C  0.55113459  0.09131532  0.32188356    -0.07650
C257        C  0.57956174  0.04679804  0.30585500     0.05880
C258        C  0.55222563  0.00270896  0.28578019    -0.02680
Br259      Br  0.58834933  0.94029913  0.26319691    -0.02370
H260        H  0.47620237  0.96672488  0.27431014     0.09790
H261        H  0.57185393  0.12551714  0.33706187     0.07810
Br262      Br  0.46037641  0.15250899  0.34699870    -0.02800
C263        C  0.23273351  0.04870246  0.26328744    -0.09430
C264        C  0.27904373  0.01966146  0.25516576     0.06760
C265        C  0.28429540  0.99021666  0.20812846    -0.03200
C266        C  0.24502425  0.99271930  0.16958042    -0.07650
C267        C  0.19893121  0.02222856  0.17766322     0.05880
C268        C  0.19256597  0.04936873  0.22589975    -0.02680
Br269      Br  0.13107316  0.08950383  0.24355524    -0.02370
H270        H  0.22782075  0.07169817  0.29893218     0.09790
H271        H  0.24987365  0.97012801  0.13364976     0.07810
Br272      Br  0.34155358  0.94239817  0.19582174    -0.02800
C273        C  0.33889920  0.07008671  0.53089182    -0.09430
C274        C  0.33209657  0.02141957  0.55624283     0.06760
C275        C  0.32109204  0.97613238  0.52607454    -0.03200
C276        C  0.32128245  0.97927099  0.47092017    -0.07650
C277        C  0.33230226  0.02727561  0.44551618     0.05880
C278        C  0.33868187  0.07334490  0.47593546    -0.02680
Br279      Br  0.34957452  0.14115669  0.44406498    -0.02370
H280        H  0.34714532  0.10516349  0.55386918     0.09790
H281        H  0.31621802  0.94363554  0.44790721     0.07810
Br282      Br  0.31037550  0.90864352  0.55863656    -0.02800
C283        C  0.24329261  0.05665869  0.74566460    -0.09430
C284        C  0.28180817  0.01700593  0.74760964     0.06760
C285        C  0.28003738  0.97995092  0.78922120    -0.03200
C286        C  0.24107144  0.98386980  0.82817794    -0.07650
C287        C  0.20250964  0.02322987  0.82582340     0.05880
C288        C  0.20368313  0.05980755  0.78402440    -0.02680
Br289      Br  0.15374914  0.11629615  0.77881480    -0.02370
H290        H  0.24424344  0.08565738  0.71429252     0.09790
H291        H  0.23986570  0.95496425  0.85965526     0.07810
Br292      Br  0.32665268  0.92058595  0.79291794    -0.02800
C293        C  0.73643975  0.99864593  0.46971784    -0.09430
C294        C  0.71438740  0.04296026  0.44535072     0.06760
C295        C  0.69823728  0.08608073  0.47642154    -0.03200
C296        C  0.70035117  0.08263956  0.53122482    -0.07650
C297        C  0.71852791  0.03671089  0.55573698     0.05880
C298        C  0.73828258  0.99512776  0.52470721    -0.02680
Br299      Br  0.76202779  0.93043782  0.55550393    -0.02370
H300        H  0.74880303  0.96528472  0.44609492     0.09790
H301        H  0.68486238  0.11466270  0.55486727     0.07810
Br302      Br  0.67053949  0.14943739  0.44583376    -0.02800
C303        C  0.49912149  0.96348303  0.66644703    -0.09430
C304        C  0.47186959  0.00528974  0.69027887     0.06760
C305        C  0.50057431  0.04376014  0.71846705    -0.03200
C306        C  0.55582946  0.04204485  0.71872763    -0.07650
C307        C  0.58294824  0.00267540  0.69088930     0.05880
C308        C  0.55407153  0.96196962  0.66645716    -0.02680
Br309      Br  0.58802772  0.90530236  0.62952806    -0.02370
H310        H  0.47753523  0.93329098  0.64525131     0.09790
H311        H  0.57767226  0.07379860  0.73720751     0.07810
Br312      Br  0.46698754  0.10285561  0.75153915    -0.02800
C313        C  0.76377435  0.04913592  0.79167764    -0.09430
C314        C  0.77316762  0.02052560  0.74517588     0.06760
C315        C  0.82181740  0.99408997  0.73934273    -0.03200
C316        C  0.85991282  0.99783366  0.77876730    -0.07650
C317        C  0.85044555  0.02627896  0.82525377     0.05880
C318        C  0.80146268  0.05191307  0.83166198    -0.02680
Br319      Br  0.78398457  0.09337837  0.89265791    -0.02370
H320        H  0.72699207  0.07009733  0.79676367     0.09790
H321        H  0.89669404  0.97682497  0.77371421     0.07810
Br322      Br  0.83773057  0.94854168  0.68102859    -0.02800
C323        C  0.23165904  0.75810524  0.99040730    -0.09430
C324        C  0.28220847  0.77172141  0.00857777     0.06760
C325        C  0.29054950  0.82389526  0.02682366    -0.03200
C326        C  0.25026818  0.86116645  0.02316913    -0.07650
C327        C  0.19984988  0.84748230  0.00486940     0.05880
C328        C  0.19027822  0.79426954  0.99050862    -0.02680
Br329      Br  0.12223699  0.76611378  0.97209015    -0.02370
H330        H  0.22372796  0.71862106  0.97619375     0.09790
H331        H  0.25806293  0.90091283  0.03686322     0.07810
Br332      Br  0.35320732  0.84678683  0.06239346    -0.02800
C333        C  0.34509657  0.49814787  0.06739855    -0.09430
C334        C  0.33679472  0.47061227  0.02022253     0.06760
C335        C  0.32463509  0.49871586  0.97403110    -0.03200
C336        C  0.32395344  0.55380198  0.97481378    -0.07650
C337        C  0.33568253  0.58145828  0.02112371     0.05880
C338        C  0.34460257  0.55340455  0.06806790    -0.02680
Br339      Br  0.36035768  0.58925865  0.13262176    -0.02370
H340        H  0.35493621  0.47676472  0.10296121     0.09790
H341        H  0.31791724  0.57516147  0.93835083     0.07810
Br342      Br  0.31436180  0.46363455  0.90783701    -0.02800
C343        C  0.29051199  0.23164506  0.03417303    -0.09430
C344        C  0.28010150  0.28103392  0.01120248     0.06760
C345        C  0.22975688  0.28967161  0.98929697    -0.03200
C346        C  0.19124868  0.25033410  0.99247906    -0.07650
C347        C  0.20235991  0.20007165  0.01260693     0.05880
C348        C  0.25278102  0.19111664  0.03434878    -0.02680
Br349      Br  0.27239166  0.12599261  0.06762663    -0.02370
H350        H  0.32838153  0.22436863  0.05221589     0.09790
H351        H  0.15258590  0.25876604  0.97730676     0.07810
Br352      Br  0.21179879  0.35128054  0.94900370    -0.02800
C353        C  0.55408417  0.35497716  0.94574930    -0.09430
C354        C  0.58104867  0.32976561  0.98680399     0.06760
C355        C  0.55201357  0.30147746  0.02504461    -0.03200
C356        C  0.49683048  0.30318092  0.02453776    -0.07650
C357        C  0.47018839  0.33313280  0.98659231     0.05880
C358        C  0.49914430  0.35694103  0.94543121    -0.02680
Br359      Br  0.46559932  0.39543932  0.88980278    -0.02370
H360        H  0.57600556  0.37629910  0.91573355     0.09790
H361        H  0.47488778  0.28467972  0.05632804     0.07810
Br362      Br  0.58550328  0.26593058  0.08252604    -0.02800
C363        C  0.76547117  0.23258175  0.03104001    -0.09430
C364        C  0.77194001  0.27767416  0.99948722     0.06760
C365        C  0.81784683  0.28257937  0.96804719    -0.03200
C366        C  0.85648249  0.24350570  0.96982322    -0.07650
C367        C  0.84988594  0.19840400  0.00124604     0.05880
C368        C  0.80362118  0.19300475  0.03198007    -0.02680
Br369      Br  0.79110258  0.13416225  0.07821147    -0.02370
H370        H  0.73069986  0.22836563  0.05565331     0.09790
H371        H  0.89128492  0.24766991  0.94523396     0.07810
Br372      Br  0.82860472  0.33914782  0.91863733    -0.02800
C373        C  0.49692097  0.69417474  0.94136179    -0.09430
C374        C  0.47164850  0.71591569  0.98553479     0.06760
C375        C  0.50209043  0.73989450  0.02523549    -0.03200
C376        C  0.55706884  0.73916319  0.02170718    -0.07650
C377        C  0.58224575  0.71363408  0.97965015     0.05880
C378        C  0.55188378  0.69275052  0.93826585    -0.02680
Br379      Br  0.58391594  0.65884854  0.87865939    -0.02370
H380        H  0.47383736  0.67526602  0.91086415     0.09790
H381        H  0.58018454  0.75458865  0.05407281     0.07810
Br382      Br  0.47099588  0.76684440  0.08869237    -0.02800
C383        C  0.73174774  0.49506080  0.04712245    -0.09430
C384        C  0.71765280  0.46711156  0.00154088     0.06760
C385        C  0.70835448  0.49471197  0.95439846    -0.03200
C386        C  0.70896335  0.54956269  0.95431119    -0.07650
C387        C  0.71865977  0.57776890  0.00071161     0.05880
C388        C  0.73234728  0.55041569  0.04695850    -0.02680
Br389      Br  0.74694093  0.58682200  0.11149974    -0.02370
H390        H  0.73893569  0.47399283  0.08351626     0.09790
H391        H  0.69867894  0.57041572  0.91852791     0.07810
Br392      Br  0.69066185  0.45923621  0.88995534    -0.02800
C393        C  0.80263319  0.85687005  0.01461602    -0.09430
C394        C  0.85162768  0.84684521  0.99124272     0.06760
C395        C  0.86009526  0.79699354  0.96779024    -0.03200
C396        C  0.82000378  0.75888848  0.96901455    -0.07650
C397        C  0.77174977  0.76846861  0.99476931     0.05880
C398        C  0.76387815  0.81800923  0.01883560    -0.02680
Br399      Br  0.70402803  0.83420642  0.06268649    -0.02370
H400        H  0.79486283  0.89498796  0.03111071     0.09790
H401        H  0.82656494  0.72161612  0.94924925     0.07810
Br402      Br  0.92363042  0.77904412  0.93049191    -0.02800
loop_ 
_geom_bond_atom_site_label_1 
_geom_bond_atom_site_label_2 
_geom_bond_distance 
_geom_bond_site_symmetry_2 
_ccdc_geom_bond_type 
C1            C2   1.410   1_556  A
C1            C6   1.410       .  A
C1          C397   1.486       .  S
C2            C3   1.399       .  A
C2            H7   1.083       .  S
C3            C4   1.398   1_554  A
C3          C387   1.471       .  S
C4            C5   1.396       .  A
C4            H8   1.085       .  S
C5            C6   1.398       .  A
C5          C377   1.473       .  S
C6            H9   1.082       .  S
C10          C11   1.408       .  A
C10          C15   1.412   1_554  A
C10         C364   1.483   1_554  S
C11          C12   1.397       .  A
C11          H16   1.083       .  S
C12          C13   1.396   1_554  A
C12         C384   1.471       .  S
C13          C14   1.398       .  A
C13          H17   1.085       .  S
C14          C15   1.403       .  A
C14         C354   1.479       .  S
C15          H18   1.084       .  S
C19          C20   1.410       .  A
C19          C24   1.412   1_554  A
C19         C344   1.491       .  S
C20          C21   1.398       .  A
C20          H25   1.082       .  S
C21          C22   1.396       .  A
C21         C334   1.472       .  S
C22          C23   1.400   1_554  A
C22          H26   1.085       .  S
C23          C24   1.402       .  A
C23         C357   1.478       .  S
C24          H27   1.083       .  S
C28          C29   1.412   1_554  A
C28          C33   1.415       .  A
C28         C324   1.497       .  S
C29          C30   1.402       .  A
C29          H34   1.081       .  S
C30          C31   1.396   1_556  A
C30         C374   1.474       .  S
C31          C32   1.394       .  A
C31          H35   1.085       .  S
C32          C33   1.400       .  A
C32         C337   1.472       .  S
C33          H36   1.083       .  S
C37          C38   1.414       .  A
C37          C42   1.409       .  A
C37         C314   1.489       .  S
C38          C39   1.404       .  A
C38          H43   1.083       .  S
C39          C40   1.397       .  A
C39         C307   1.479       .  S
C40          C41   1.395       .  A
C40          H44   1.085       .  S
C41          C42   1.399       .  A
C41         C297   1.471       .  S
C42          H45   1.083       .  S
C46          C47   1.409       .  A
C46          C51   1.410       .  A
C46         C284   1.485       .  S
C47          C48   1.400       .  A
C47          H52   1.084       .  S
C48          C49   1.398       .  A
C48         C274   1.474       .  S
C49          C50   1.401       .  A
C49          H53   1.085       .  S
C50          C51   1.403       .  A
C50         C304   1.482       .  S
C51          H54   1.083       .  S
C55          C56   1.410       .  A
C55          C60   1.413       .  A
C55         C264   1.490       .  S
C56          C57   1.401       .  A
C56          H61   1.083       .  S
C57          C58   1.399       .  A
C57         C254   1.477       .  S
C58          C59   1.398       .  A
C58          H62   1.085       .  S
C59          C60   1.401       .  A
C59         C277   1.478       .  S
C60          H63   1.084       .  S
C64          C65   1.407       .  A
C64          C69   1.413       .  A
C64         C244   1.486       .  S
C65          C66   1.399       .  A
C65          H70   1.083       .  S
C66          C67   1.398       .  A
C66         C294   1.473       .  S
C67          C68   1.397       .  A
C67          H71   1.085       .  S
C68          C69   1.400       .  A
C68         C257   1.476       .  S
C69          H72   1.083       .  S
C73          C74   1.412       .  A
C73          C78   1.408       .  A
C73         C237   1.486       .  S
C74          C75   1.402       .  A
C74          H79   1.084       .  S
C75          C76   1.399       .  A
C75         C227   1.478       .  S
C76          C77   1.400       .  A
C76          H80   1.085       .  S
C77          C78   1.400       .  A
C77         C217   1.475       .  S
C78          H81   1.083       .  S
C82          C83   1.409       .  A
C82          C87   1.407       .  A
C82         C207   1.478       .  S
C83          C84   1.404       .  A
C83          H88   1.084       .  S
C84          C85   1.399       .  A
C84         C224   1.478       .  S
C85          C86   1.400       .  A
C85          H89   1.085       .  S
C86          C87   1.401       .  A
C86         C197   1.477       .  S
C87          H90   1.084       .  S
C91          C92   1.408       .  A
C91          C96   1.407       .  A
C91         C184   1.475       .  S
C92          C93   1.401       .  A
C92          H97   1.084       .  S
C93          C94   1.398       .  A
C93         C214   1.474       .  S
C94          C95   1.399       .  A
C94          H98   1.085       .  S
C95          C96   1.401       .  A
C95         C174   1.477       .  S
C96          H99   1.084       .  S
C100        C101   1.410       .  A
C100        C105   1.409       .  A
C100        C167   1.482       .  S
C101        C102   1.401       .  A
C101        H106   1.083       .  S
C102        C103   1.398       .  A
C102        C194   1.477       .  S
C103        C104   1.399       .  A
C103        H107   1.085       .  S
C104        C105   1.401       .  A
C104        C177   1.479       .  S
C105        H108   1.084       .  S
O109       Zr145   2.425   1_655  S
O109        C120   1.289       .  A
O110       Zr144   2.444   1_655  S
O110        C121   1.294   1_556  A
O111       Zr117   2.443   1_554  S
O111        C122   1.293       .  A
O112       Zr117   2.429       .  S
O112        C123   1.290       .  A
O113       Zr147   2.447   1_655  S
O113        C123   1.294       .  A
O114       Zr146   2.440   1_655  S
O114        C122   1.293       .  A
O115       Zr117   2.429   1_554  S
O115        C121   1.290       .  A
O116       Zr117   2.447   1_565  S
O116        C120   1.295       .  A
Zr117       O118   2.345       .  S
Zr117       O119   2.336   1_546  S
Zr117       O127   2.338   1_545  S
Zr117       O125   2.340   1_556  S
O118       Zr144   2.337   1_655  S
O118       Zr147   2.335   1_655  S
O119       Zr145   2.345   1_654  S
O119       Zr146   2.346   1_665  S
C120        C394   1.484       .  S
C121        C367   1.477       .  S
C122        C247   1.484       .  S
C123        C317   1.481       .  S
H124        O125   0.966       .  S
O125       Zr144   2.343   1_654  S
O125       Zr146   2.335   1_655  S
H126        O127   0.965       .  S
O127       Zr145   2.337   1_655  S
O127       Zr147   2.339   1_665  S
O128       Zr144   2.444   1_554  S
O128        C151   1.294       .  A
O129       Zr145   2.425   1_554  S
O129        C152   1.288       .  A
O130       Zr146   2.448       .  S
O130        C153   1.293       .  A
O131       Zr147   2.438       .  S
O131        C154   1.292       .  A
O132       Zr147   2.434   1_565  S
O132        C155   1.291       .  A
O133       Zr146   2.436   1_565  S
O133        C156   1.292       .  A
O134       Zr148   2.448       .  S
O134        C157   1.294       .  A
O135       Zr148   2.439   1_556  S
O135        C158   1.293       .  A
O136       Zr146   2.434       .  S
O136        C157   1.291       .  A
O137       Zr147   2.438       .  S
O137        C158   1.292       .  A
O138       Zr144   2.430   1_554  S
O138        C153   1.290       .  A
O139       Zr145   2.440   1_554  S
O139        C156   1.292       .  A
O140       Zr145   2.448       .  S
O140        C155   1.293       .  A
O141       Zr144   2.449       .  S
O141        C154   1.294       .  A
O142       Zr148   2.436       .  S
O142        C151   1.291       .  A
O143       Zr148   2.447   1_565  S
O143        C152   1.295       .  A
Zr144       O150   2.341   1_556  S
Zr144       O162   2.341       .  S
Zr145       O149   2.337       .  S
Zr145       O160   2.338   1_556  S
Zr146       O150   2.336       .  S
Zr146       O160   2.341   1_545  S
Zr147       O149   2.345   1_545  S
Zr147       O162   2.346       .  S
Zr148       O149   2.339   1_544  S
Zr148       O150   2.339       .  S
Zr148       O162   2.353   1_554  S
Zr148       O160   2.335   1_545  S
C151        C347   1.488       .  S
C152        C327   1.489       .  S
C153        C187   1.468       .  S
C154        C234   1.482       .  S
C155        C204   1.471       .  S
C156        C164   1.472       .  S
C157        C267   1.484       .  S
C158        C287   1.473       .  S
H159        O160   0.965       .  S
H161        O162   0.966       .  S
C163        C164   1.403       .  A
C163        C168   1.399       .  A
C163        H170   1.084       .  S
C164        C165   1.408   1_455  A
C165        C166   1.399       .  A
C165       Br172   1.921       .  S
C166        C167   1.406   1_655  A
C166        H171   1.083       .  S
C167        C168   1.411       .  A
C168       Br169   1.921       .  S
C173        C174   1.404       .  A
C173        C178   1.403       .  A
C173        H180   1.083       .  S
C174        C175   1.409   1_455  A
C175        C176   1.394       .  A
C175       Br182   1.921       .  S
C176        C177   1.403   1_655  A
C176        H181   1.084       .  S
C177        C178   1.410       .  A
C178       Br179   1.918       .  S
C183        C184   1.404   1_655  A
C183        C188   1.399       .  A
C183        H190   1.084       .  S
C184        C185   1.408       .  A
C185        C186   1.398       .  A
C185       Br192   1.919       .  S
C186        C187   1.401       .  A
C186        H191   1.082       .  S
C187        C188   1.407   1_455  A
C188       Br189   1.920       .  S
C193        C194   1.404       .  A
C193        C198   1.403       .  A
C193        H200   1.083       .  S
C194        C195   1.408   1_455  A
C195        C196   1.395       .  A
C195       Br202   1.920       .  S
C196        C197   1.402   1_655  A
C196        H201   1.084       .  S
C197        C198   1.410       .  A
C198       Br199   1.918       .  S
C203        C204   1.402   1_655  A
C203        C208   1.399       .  A
C203        H210   1.084       .  S
C204        C205   1.407       .  A
C205        C206   1.400       .  A
C205       Br212   1.917       .  S
C206        C207   1.403       .  A
C206        H211   1.084       .  S
C207        C208   1.410   1_455  A
C208       Br209   1.919       .  S
C213        C214   1.402   1_655  A
C213        C218   1.394       .  A
C213        H220   1.084       .  S
C214        C215   1.408       .  A
C215        C216   1.403       .  A
C215       Br222   1.917       .  S
C216        C217   1.404       .  A
C216        H221   1.083       .  S
C217        C218   1.407   1_455  A
C218       Br219   1.918       .  S
C223        C224   1.403   1_655  A
C223        C228   1.397       .  A
C223        H230   1.084       .  S
C224        C225   1.409       .  A
C225        C226   1.403       .  A
C225       Br232   1.918       .  S
C226        C227   1.404       .  A
C226        H231   1.083       .  S
C227        C228   1.407   1_455  A
C228       Br229   1.918       .  S
C233        C234   1.404   1_655  A
C233        C238   1.402       .  A
C233        H240   1.084       .  S
C234        C235   1.409       .  A
C235        C236   1.397       .  A
C235       Br242   1.907       .  S
C236        C237   1.402       .  A
C236        H241   1.084       .  S
C237        C238   1.415   1_455  A
C238       Br239   1.921       .  S
C243        C244   1.401       .  A
C243        C248   1.393       .  A
C243        H250   1.084   1_545  S
C244        C245   1.416       .  A
C245        C246   1.401       .  A
C245       Br252   1.921       .  S
C246        C247   1.405       .  A
C246        H251   1.084       .  S
C247        C248   1.410       .  A
C248       Br249   1.901   1_545  S
C253        C254   1.404       .  A
C253        C258   1.402       .  A
C253        H260   1.084   1_545  S
C254        C255   1.408       .  A
C255        C256   1.395       .  A
C255       Br262   1.917       .  S
C256        C257   1.401       .  A
C256        H261   1.084       .  S
C257        C258   1.410       .  A
C258       Br259   1.918   1_545  S
C263        C264   1.404       .  A
C263        C268   1.396       .  A
C263        H270   1.083       .  S
C264        C265   1.414   1_545  A
C265        C266   1.402       .  A
C265       Br272   1.921       .  S
C266        C267   1.406   1_565  A
C266        H271   1.084       .  S
C267        C268   1.413       .  A
C268       Br269   1.918       .  S
C273        C274   1.401       .  A
C273        C278   1.397       .  A
C273        H280   1.084       .  S
C274        C275   1.408   1_545  A
C275        C276   1.402       .  A
C275       Br282   1.917       .  S
C276        C277   1.403   1_565  A
C276        H281   1.083       .  S
C277        C278   1.409       .  A
C278       Br279   1.918       .  S
C283        C284   1.406       .  A
C283        C288   1.399       .  A
C283        H290   1.083       .  S
C284        C285   1.413   1_545  A
C285        C286   1.399       .  A
C285       Br292   1.921       .  S
C286        C287   1.402   1_565  A
C286        H291   1.084       .  S
C287        C288   1.409       .  A
C288       Br289   1.921       .  S
C293        C294   1.402   1_565  A
C293        C298   1.399       .  A
C293        H300   1.083       .  S
C294        C295   1.409       .  A
C295        C296   1.395       .  A
C295       Br302   1.921       .  S
C296        C297   1.401       .  A
C296        H301   1.084       .  S
C297        C298   1.409   1_545  A
C298       Br299   1.917       .  S
C303        C304   1.404   1_565  A
C303        C308   1.395       .  A
C303        H310   1.084       .  S
C304        C305   1.412       .  A
C305        C306   1.403       .  A
C305       Br312   1.918       .  S
C306        C307   1.404       .  A
C306        H311   1.083       .  S
C307        C308   1.409   1_545  A
C308       Br309   1.921       .  S
C313        C314   1.405       .  A
C313        C318   1.399       .  A
C313        H320   1.083       .  S
C314        C315   1.415   1_545  A
C315        C316   1.398       .  A
C315       Br322   1.920       .  S
C316        C317   1.403   1_565  A
C316        H321   1.084       .  S
C317        C318   1.414       .  A
C318       Br319   1.923       .  S
C323        C324   1.407   1_556  A
C323        C328   1.397       .  A
C323        H330   1.082       .  S
C324        C325   1.417       .  A
C325        C326   1.398       .  A
C325       Br332   1.920       .  S
C326        C327   1.405       .  A
C326        H331   1.084       .  S
C327        C328   1.418   1_554  A
C328       Br329   1.925       .  S
C333        C334   1.402       .  A
C333        C338   1.401       .  A
C333        H340   1.083       .  S
C334        C335   1.408   1_554  A
C335        C336   1.397       .  A
C335       Br342   1.919       .  S
C336        C337   1.401   1_556  A
C336        H341   1.084       .  S
C337        C338   1.407       .  A
C338       Br339   1.917       .  S
C343        C344   1.407       .  A
C343        C348   1.401       .  A
C343        H350   1.083       .  S
C344        C345   1.414   1_554  A
C345        C346   1.395       .  A
C345       Br352   1.924       .  S
C346        C347   1.403   1_556  A
C346        H351   1.078       .  S
C347        C348   1.415       .  A
C348       Br349   1.922       .  S
C353        C354   1.404       .  A
C353        C358   1.396       .  A
C353        H360   1.084       .  S
C354        C355   1.410   1_556  A
C355        C356   1.402       .  A
C355       Br362   1.918       .  S
C356        C357   1.404   1_554  A
C356        H361   1.084       .  S
C357        C358   1.408       .  A
C358       Br359   1.920       .  S
C363        C364   1.404   1_554  A
C363        C368   1.398       .  A
C363        H370   1.084       .  S
C364        C365   1.414       .  A
C365        C366   1.398       .  A
C365       Br372   1.922       .  S
C366        C367   1.403   1_556  A
C366        H371   1.084       .  S
C367        C368   1.413       .  A
C368       Br369   1.922       .  S
C373        C374   1.403       .  A
C373        C378   1.397       .  A
C373        H380   1.084       .  S
C374        C375   1.409   1_556  A
C375        C376   1.398       .  A
C375       Br382   1.917       .  S
C376        C377   1.401   1_554  A
C376        H381   1.084       .  S
C377        C378   1.408       .  A
C378       Br379   1.919       .  S
C383        C384   1.404       .  A
C383        C388   1.403       .  A
C383        H390   1.083       .  S
C384        C385   1.407   1_554  A
C385        C386   1.390       .  A
C385       Br392   1.921       .  S
C386        C387   1.400   1_556  A
C386        H391   1.084       .  S
C387        C388   1.409       .  A
C388       Br389   1.917       .  S
C393        C394   1.399   1_554  A
C393        C398   1.393       .  A
C393        H400   1.072       .  S
C394        C395   1.414       .  A
C395        C396   1.400       .  A
C395       Br402   1.922       .  S
C396        C397   1.408       .  A
C396        H401   1.083       .  S
C397        C398   1.411   1_556  A
C398       Br399   1.925       .  S
