geometry optimzed in LAMMPS
_audit_creation_date              2020-12-01 
_audit_creation_method            'lammps2cif' 
_symmetry_space_group_name_H-M    'P1' 
_symmetry_Int_Tables_number       1 
_symmetry_cell_setting            triclinic 
loop_ 
_symmetry_equiv_pos_as_xyz 
  x,y,z 
_cell_length_a                    33.99860099 
_cell_length_b                    34.8988048216499 
_cell_length_c                    34.644177294852994 
_cell_angle_alpha                 90.22231486647591 
_cell_angle_beta                  90.44420224457042 
_cell_angle_gamma                 82.53471591963144 
loop_ 
_atom_site_label 
_atom_site_type_symbol 
_atom_site_fract_x 
_atom_site_fract_y 
_atom_site_fract_z 
_atom_site_charge 
C1          C  0.85221175  0.87854572  0.62350194    -0.02800
C2          C  0.50187545  0.54332337  0.61785056    -0.02800
C3          C  0.84352600  0.55754348  0.93901282    -0.02800
C4          C  0.52112714  0.86582043  0.96164192    -0.02800
C5          C  0.99352205  0.04165877  0.43021097    -0.02800
C6          C  0.03546496  0.36360217  0.10114061    -0.02800
C7          C  0.33260700  0.05576259  0.12045918    -0.02800
C8          C  0.36072479  0.37965195  0.42407332    -0.02800
Zr9        Zr  0.89131784  0.93011755  0.97075565     2.17500
O10         O  0.84445276  0.94770922  0.91812220    -0.51600
O11         O  0.88816696  0.86101350  0.97026361    -0.74800
O12         O  0.92191523  0.91362573  0.90947647    -0.81600
O13         O  0.80775399  0.94400815  0.04393387    -0.83300
O14         O  0.98273582  0.93409156  0.90800462    -0.79000
O15         O  0.82368965  0.92314566  0.98311927    -0.90600
O16         O  0.93121412  0.83418721  0.01620187    -0.76600
O17         O  0.95850197  0.90537087  0.98383612    -0.86100
O18         O  0.89188427  0.91044079  0.03632258    -0.85700
O19         O  0.92777160  0.98291547  0.95744968    -0.72500
O20         O  0.86534128  0.98686931  0.00618249    -0.84600
Zr21       Zr  0.97095162  0.99539419  0.07449805     2.26400
Zr22       Zr  0.99522742  0.95845109  0.97311254     2.06300
Zr23       Zr  0.86729949  0.96680027  0.07227942     2.10000
Zr24       Zr  0.95904918  0.88627758  0.04957885     1.78800
O25         O  0.81432244  0.01845280  0.08730805    -0.93400
O26         O  0.01749185  0.84393575  0.02812490    -0.41300
O27         O  0.93480606  0.94238853  0.08682596    -0.77900
O28         O  0.99726755  0.93824426  0.03940346    -0.96600
O29         O  0.97079634  0.01529446  0.00903393    -0.89900
O30         O  0.90391592  0.01975985  0.06082931    -0.92700
C31         C  0.90533252  0.83204944  0.98932827     1.01000
C32         C  0.79938729  0.92935259  0.01108916     1.14000
C33         C  0.95399697  0.91879709  0.89227621     1.04700
O34         O  0.05085619  0.90923152  0.95904455    -0.94900
O35         O  0.05515613  0.97924343  0.00169334    -0.90600
O36         O  0.04006666  0.99733290  0.06360359    -0.83800
C37         C  0.06407287  0.99117763  0.03544527     1.11400
O38         O  0.85188441  0.05192677  0.94560146    -0.96800
Zr39       Zr  0.90354065  0.03889463  0.99488283     1.88900
O40         O  0.97427304  0.06442764  0.07307878    -0.73500
O41         O  0.01900336  0.00462797  0.92935951    -0.52800
O42         O  0.92760256  0.07111813  0.93913327    -0.97400
O43         O  0.85071443  0.08713271  0.01865174    -0.54700
O44         O  0.93609966  0.09046022  0.02341130    -0.74000
C45         C  0.95987699  0.09306293  0.05201402     0.98300
O46         O  0.00929579  0.98578002  0.13429616    -0.62800
O47         O  0.84531780  0.92372788  0.12036014    -0.57600
O48         O  0.94201184  0.00820798  0.13712358    -0.94300
O49         O  0.88247456  0.98523132  0.13847906    -0.92700
O50         O  0.93374920  0.84765473  0.09976305    -0.93100
O51         O  0.00419474  0.87152319  0.10401438    -0.91900
C52         C  0.91117645  0.00005963  0.15469139     1.17200
H53         H  0.87509302  0.89072347  0.04046593     0.33100
H54         H  0.02419006  0.92936711  0.04729567     0.44000
H55         H  0.89511746  0.04128171  0.07761184     0.37500
H56         H  0.92538076  0.98956820  0.93042095     0.34000
H57         H  0.01579535  0.81909096  0.04132455     0.25800
H58         H  0.03806979  0.98877963  0.91242900     0.31700
H59         H  0.92368302  0.09896071  0.94580040     0.37600
H60         H  0.91827312  0.86676556  0.11678314     0.32100
H61         H  0.81688500  0.93314032  0.12423221     0.30900
H62         H  0.80147931  0.02549901  0.06212862     0.32600
H63         H  0.85480831  0.11132808  0.00531648     0.31600
H64         H  0.01034755  0.89699264  0.11318783     0.35600
H65         H  0.02878903  0.96259409  0.12987713     0.28300
H66         H  0.84418270  0.92390406  0.90252551     0.32600
H67         H  0.84887072  0.08014903  0.94103680     0.35400
H68         H  0.84565350  0.89853723  0.10710286     0.28000
H69         H  0.02522606  0.00756092  0.13602057     0.40900
H70         H  0.03896143  0.88491228  0.95655145     0.30900
H71         H  0.01210314  0.83854174  0.00064952     0.38600
H72         H  0.85744781  0.09189920  0.04594243     0.30400
H73         H  0.99603471  0.01337516  0.91242973     0.30500
H74         H  0.85732123  0.96542142  0.90154345     0.30700
Zr75       Zr  0.88446616  0.51701753  0.55434680     2.17500
O76         O  0.83456600  0.57388797  0.55063949    -0.51600
O77         O  0.88405990  0.51862158  0.62504289    -0.74800
O78         O  0.81758193  0.50225577  0.56402821    -0.81600
O79         O  0.96485162  0.58215178  0.53420361    -0.83300
O80         O  0.81296059  0.44077808  0.54468672    -0.79000
O81         O  0.90189269  0.58178640  0.55615753    -0.90600
O82         O  0.92833584  0.46895169  0.64662370    -0.76600
O83         O  0.89513521  0.45157960  0.57453653    -0.86100
O84         O  0.95285509  0.50557731  0.57147050    -0.85700
O85         O  0.86643620  0.48076785  0.49918330    -0.72500
O86         O  0.92009751  0.52933703  0.49703075    -0.84600
Zr87       Zr  0.98316383  0.41361566  0.47956713     2.26400
Zr88       Zr  0.87854863  0.41461861  0.51960558     2.06300
Zr89       Zr  0.98893123  0.51631032  0.51418818     2.10000
Zr90       Zr  0.96373478  0.43986294  0.59075907     1.78800
O91         O  0.00748930  0.56188970  0.46668118    -0.93400
O92         O  0.94624168  0.38392267  0.62528365    -0.41300
O93         O  0.00134255  0.45030233  0.53417356    -0.77900
O94         O  0.94749395  0.40148567  0.53688624    -0.96600
O95         O  0.91474042  0.42558923  0.46247429    -0.89900
O96         O  0.97216670  0.47925313  0.45987673    -0.92700
C97         C  0.90119166  0.49756119  0.65227798     1.01000
C98         C  0.93184465  0.59880115  0.54765155     1.14000
C99         C  0.79801232  0.47361227  0.55889579     1.04700
O100        O  0.86288142  0.36971589  0.56908805    -0.94900
O101        O  0.90205489  0.34931872  0.49571998    -0.90600
O102        O  0.96430996  0.34938395  0.47181019    -0.83800
C103        C  0.93408669  0.33248707  0.48011279     1.11400
O104        O  0.84846817  0.54108595  0.42921326    -0.96800
Zr105      Zr  0.90405878  0.49130931  0.44276579     1.88900
O106        O  0.98186472  0.40960018  0.40937515    -0.73500
O107        O  0.82812486  0.39837737  0.47423889    -0.52800
O108        O  0.85290814  0.46553130  0.40463852    -0.97400
O109        O  0.92420532  0.54511407  0.40634755    -0.54700
O110        O  0.93788086  0.45947538  0.38727865    -0.74000
C111        C  0.96437237  0.43018388  0.38204584     0.98300
O112        O  0.03693031  0.36219032  0.49433227    -0.62800
O113        O  0.03835876  0.53070498  0.56148455    -0.57600
O114        O  0.04756383  0.43068937  0.46168161    -0.94300
O115        O  0.05271965  0.49047679  0.48606786    -0.92700
O116        O  0.01378961  0.46710252  0.62904223    -0.93100
O117        O  0.02071539  0.39255126  0.60638006    -0.91900
C118        C  0.06671310  0.45952705  0.46784161     1.17200
H119        H  0.95909317  0.52257884  0.59212909     0.33100
H120        H  0.95385039  0.37468942  0.54417685     0.44000
H121        H  0.98862063  0.48383849  0.43801378     0.37500
H122        H  0.83872053  0.48776318  0.49279451     0.34000
H123        H  0.95589652  0.38701084  0.65199959     0.25800
H124        H  0.80970547  0.38529199  0.49000710     0.31700
H125        H  0.86247192  0.43765884  0.40159770     0.37600
H126        H  0.01249894  0.45546851  0.65494834     0.32100
H127        H  0.05090891  0.50506749  0.57046374     0.30900
H128        H  0.02719151  0.57584358  0.48010827     0.32600
H129        H  0.91792881  0.53961809  0.37909460     0.31600
H130        H  0.02127884  0.37291298  0.58562942     0.35600
H131        H  0.05737360  0.37500908  0.50796844     0.28300
H132        H  0.81959118  0.57454179  0.57509163     0.32600
H133        H  0.84622058  0.54251340  0.40072260     0.35400
H134        H  0.05917037  0.54086347  0.54616692     0.28000
H135        H  0.02633036  0.34671280  0.51477022     0.40900
H136        H  0.88754525  0.35156974  0.57262683     0.30900
H137        H  0.91698826  0.38861906  0.62730003     0.38600
H138        H  0.95354351  0.54160149  0.40762072     0.30400
H139        H  0.81277553  0.42348783  0.46718867     0.30500
H140        H  0.81556521  0.56811418  0.53028784     0.30700
Zr141      Zr  0.48862625  0.48515063  0.97794315     2.17500
O142        O  0.53588960  0.47441294  0.92513088    -0.51600
O143        O  0.49220609  0.55469379  0.97911953    -0.74800
O144        O  0.46039577  0.50285196  0.91593252    -0.81600
O145        O  0.57053635  0.45605239  0.05202650    -0.83300
O146        O  0.39716623  0.48907358  0.91070959    -0.79000
O147        O  0.55879839  0.47932785  0.99122611    -0.90600
O148        O  0.44691050  0.58036451  0.02289593    -0.76600
O149        O  0.42232545  0.51298968  0.98994961    -0.86100
O150        O  0.48789836  0.50179654  0.04443742    -0.85700
O151        O  0.44826866  0.43588943  0.96033155    -0.72500
O152        O  0.50803381  0.42516511  0.01069058    -0.84600
Zr153      Zr  0.39884096  0.42082553  0.07420079     2.26400
Zr154      Zr  0.38155581  0.46398805  0.97392557     2.06300
Zr155      Zr  0.50650335  0.44208919  0.07766661     2.10000
Zr156      Zr  0.42114478  0.52828333  0.05678897     1.78800
O157        O  0.55770327  0.38823025  0.09142458    -0.93400
O158        O  0.36186471  0.57262880  0.04116885    -0.41300
O159        O  0.43961157  0.46944369  0.09157860    -0.77900
O160        O  0.37864066  0.48053691  0.04128867    -0.96600
O161        O  0.39976668  0.40469055  0.00770651    -0.89900
O162        O  0.46530335  0.39336596  0.06200407    -0.92700
C163        C  0.47266055  0.58357147  0.99662371     1.01000
C164        C  0.58199702  0.46859285  0.01955422     1.14000
C165        C  0.42813243  0.50173651  0.89713406     1.04700
O166        O  0.33117673  0.51893524  0.96165386    -0.94900
O167        O  0.31927358  0.44360732  0.99618237    -0.90600
O168        O  0.33126724  0.41447662  0.05465469    -0.83800
C169        C  0.30863268  0.42555977  0.02591392     1.11400
O170        O  0.51233502  0.36209731  0.94273810    -0.96800
Zr171      Zr  0.46581747  0.37688909  0.99556475     1.88900
O172        O  0.39703843  0.35177363  0.07513405    -0.73500
O173        O  0.35740883  0.42287372  0.92443267    -0.52800
O174        O  0.43395775  0.34563989  0.94303735    -0.97400
O175        O  0.52003232  0.32877807  0.01679399    -0.54700
O176        O  0.43298920  0.32561076  0.02479715    -0.74000
C177        C  0.41006954  0.32293025  0.05385300     0.98300
O178        O  0.35244843  0.43891202  0.12656984    -0.62800
O179        O  0.53055607  0.48370583  0.12674045    -0.57600
O180        O  0.42695839  0.40125114  0.13611949    -0.94300
O181        O  0.48919100  0.41854147  0.14102728    -0.92700
O182        O  0.45588063  0.55914859  0.10755402    -0.93100
O183        O  0.37879335  0.54844946  0.11151274    -0.91900
C184        C  0.45914624  0.40425059  0.15468383     1.17200
H185        H  0.50613457  0.52013649  0.05015659     0.33100
H186        H  0.35176154  0.49040562  0.04828970     0.44000
H187        H  0.47267494  0.37055840  0.07752551     0.37500
H188        H  0.45105422  0.43002782  0.93313685     0.34000
H189        H  0.36758682  0.59815078  0.05062120     0.25800
H190        H  0.34238629  0.44090538  0.90597641     0.31700
H191        H  0.40530702  0.34989019  0.94912507     0.37600
H192        H  0.44741097  0.58717316  0.10417589     0.32100
H193        H  0.55146877  0.46671605  0.14076448     0.30900
H194        H  0.54349410  0.36802349  0.10281233     0.32600
H195        H  0.50996932  0.31652000  0.03980416     0.31600
H196        H  0.36942976  0.52438408  0.12062848     0.35600
H197        H  0.36707210  0.45363443  0.14506246     0.28300
H198        H  0.53463552  0.49930718  0.91124391     0.32600
H199        H  0.51339564  0.33396535  0.93817784     0.35400
H200        H  0.54512315  0.50182489  0.11238705     0.28000
H201        H  0.33202956  0.45865699  0.11539615     0.40900
H202        H  0.31705829  0.52365972  0.98644732     0.30900
H203        H  0.36204518  0.57477650  0.01269461     0.38600
H204        H  0.54027578  0.34411797  0.02716431     0.30400
H205        H  0.38140418  0.41188170  0.91017423     0.30500
H206        H  0.52474120  0.45661942  0.90694132     0.30700
Zr207      Zr  0.47165294  0.91626644  0.58155872     2.17500
O208        O  0.52231329  0.86084988  0.57259937    -0.51600
O209        O  0.47145956  0.91395361  0.65220977    -0.74800
O210        O  0.53727942  0.93395683  0.59480297    -0.81600
O211        O  0.39598612  0.84750182  0.56042708    -0.83300
O212        O  0.54005989  0.99398882  0.57054697    -0.79000
O213        O  0.45672312  0.85097386  0.58718623    -0.90600
O214        O  0.42692784  0.96352395  0.67360418    -0.76600
O215        O  0.45946339  0.98211398  0.60069616    -0.86100
O216        O  0.40359569  0.92607320  0.59919525    -0.85700
O217        O  0.48715111  0.95160379  0.52530819    -0.72500
O218        O  0.43525803  0.90226302  0.52460020    -0.84600
Zr219      Zr  0.36829111  0.01558466  0.50646523     2.26400
Zr220      Zr  0.47373699  0.01798305  0.54478066     2.06300
Zr221      Zr  0.36689137  0.91286473  0.54252692     2.10000
Zr222      Zr  0.39116313  0.99208483  0.61766602     1.78800
O223        O  0.34704719  0.86565621  0.49680732    -0.93400
O224        O  0.40756626  0.04760840  0.65439312    -0.41300
O225        O  0.35290459  0.97910680  0.56175344    -0.77900
O226        O  0.40517163  0.02990672  0.56313756    -0.96600
O227        O  0.43614351  0.00553744  0.48834011    -0.89900
O228        O  0.38030609  0.94973889  0.48719823    -0.92700
C229        C  0.45387694  0.93478685  0.67926188     1.01000
C230        C  0.42838234  0.83228584  0.57681553     1.14000
C231        C  0.55572918  0.96302698  0.58793722     1.04700
O232        O  0.49347821  0.06567798  0.58999146    -0.94900
O233        O  0.44737354  0.08282713  0.52258642    -0.90600
O234        O  0.38587951  0.07967518  0.49732925    -0.83800
C235        C  0.41500257  0.09805877  0.50615978     1.11400
O236        O  0.50082842  0.88879365  0.45157043    -0.96800
Zr237      Zr  0.44802592  0.93977822  0.46923628     1.88900
O238        O  0.36771545  0.02011354  0.43614931    -0.73500
O239        O  0.51913366  0.03313486  0.49471775    -0.52800
O240        O  0.50007890  0.96473648  0.43263999    -0.97400
O241        O  0.42480525  0.88748504  0.43212157    -0.54700
O242        O  0.41381801  0.97271730  0.41393974    -0.74000
C243        C  0.38609666  0.00100778  0.40847583     0.98300
O244        O  0.31294680  0.06556267  0.52050548    -0.62800
O245        O  0.32240476  0.89478178  0.59214310    -0.57600
O246        O  0.30368585  0.99718583  0.49118505    -0.94300
O247        O  0.30065973  0.93831509  0.51845076    -0.92700
O248        O  0.34262207  0.96438900  0.65658118    -0.93100
O249        O  0.33330851  0.03905243  0.63075837    -0.91900
C250        C  0.28526216  0.96871125  0.50015319     1.17200
H251        H  0.39834630  0.90926377  0.62008703     0.33100
H252        H  0.39833404  0.05670335  0.57023638     0.44000
H253        H  0.36340912  0.94447478  0.46578120     0.37500
H254        H  0.51483304  0.94513912  0.51898206     0.34000
H255        H  0.39922494  0.04297868  0.68111416     0.25800
H256        H  0.53494415  0.05180373  0.50700985     0.31700
H257        H  0.48899423  0.99149434  0.42571469     0.37600
H258        H  0.34589638  0.97470328  0.68291789     0.32100
H259        H  0.29986521  0.91582222  0.59230151     0.30900
H260        H  0.31982427  0.86186624  0.50445568     0.32600
H261        H  0.40022299  0.89918788  0.41895719     0.31600
H262        H  0.33288817  0.05822367  0.60972486     0.35600
H263        H  0.29550337  0.05318584  0.53802484     0.28300
H264        H  0.53735006  0.85808577  0.59723768     0.32600
H265        H  0.50219738  0.88952444  0.42303115     0.35400
H266        H  0.31122938  0.87223918  0.58118967     0.28000
H267        H  0.32410403  0.08448253  0.53735759     0.40900
H268        H  0.46820751  0.07942305  0.59981786     0.30900
H269        H  0.43690916  0.04413710  0.65567675     0.38600
H270        H  0.41561159  0.87020875  0.45176714     0.30400
H271        H  0.53804530  0.00927426  0.49157089     0.30500
H272        H  0.54101035  0.86931271  0.55363244     0.30700
C273        C  0.25821765  0.44666151  0.41721947    -0.11700
C274        C  0.23209513  0.42272591  0.43196854     0.14900
C275        C  0.24693426  0.38517566  0.44364953     0.01800
C276        C  0.28723120  0.37206449  0.43996930    -0.16000
C277        C  0.31475748  0.39507144  0.42412430    -0.10800
C278        C  0.29908453  0.43390459  0.41378490     0.08500
C279        C  0.18989269  0.43815998  0.43778669     0.09500
S280        S  0.21596344  0.35250511  0.46451905    -0.25200
H281        H  0.29643179  0.34352320  0.45113140     0.19800
S282        S  0.33023266  0.46895999  0.39798416    -0.30900
H283        H  0.24651338  0.47600949  0.40957733     0.10100
C284        C  0.17782808  0.45904828  0.47146292     0.03300
C285        C  0.13723144  0.46788612  0.47937495    -0.13200
C286        C  0.10837461  0.45594736  0.45440206    -0.08800
C287        C  0.12067340  0.43732631  0.41926927     0.06800
C288        C  0.16123188  0.42827590  0.41158312    -0.13900
S289        S  0.21432290  0.47157168  0.50586918    -0.30800
H290        H  0.12800245  0.48226866  0.50616994     0.11000
S291        S  0.08619225  0.42450317  0.38309606    -0.27900
H292        H  0.17055915  0.41262182  0.38544236     0.08200
H293        H  0.29988943  0.49732298  0.38499174     0.26700
H294        H  0.18741841  0.48597174  0.53469943     0.21500
H295        H  0.05725840  0.45615858  0.39065047     0.26800
H296        H  0.19238410  0.38045150  0.48647255     0.15600
C297        C  0.43297566  0.35180213  0.24319113    -0.11700
C298        C  0.43414314  0.38092322  0.27093580     0.14900
C299        C  0.45165322  0.41425259  0.26164078     0.01800
C300        C  0.46460037  0.41921448  0.22396279    -0.16000
C301        C  0.45969336  0.39182803  0.19524142    -0.10800
C302        C  0.44597774  0.35675464  0.20556416     0.08500
C303        C  0.41452128  0.37709114  0.30836102     0.09500
S304        S  0.45623272  0.45234416  0.29595911    -0.25200
H305        H  0.47520268  0.44614082  0.21629078     0.19800
S306        S  0.44317726  0.31799011  0.17145190    -0.30900
H307        H  0.42055716  0.32571970  0.25052578     0.10100
C308        C  0.37432135  0.39110915  0.31327479     0.03300
C309        C  0.35746426  0.39067996  0.34996880    -0.13200
C310        C  0.37994176  0.37724135  0.38299543    -0.08800
C311        C  0.41999760  0.35945722  0.37637921     0.06800
C312        C  0.43650842  0.36023812  0.33939520    -0.13900
S313        S  0.34454163  0.41035248  0.27261694    -0.30800
H314        H  0.32629547  0.40064662  0.35211578     0.11000
S315        S  0.45295888  0.33964717  0.41475688    -0.27900
H316        H  0.46733885  0.34905685  0.33479267     0.08200
H317        H  0.47327719  0.32789904  0.14719106     0.26700
H318        H  0.30998404  0.42350163  0.29337102     0.21500
H319        H  0.48309276  0.32066928  0.39134777     0.26800
H320        H  0.41820310  0.45265120  0.31157240     0.15600
C321        C  0.36537834  0.26709451  0.43213637    -0.11700
C322        C  0.38367228  0.25972779  0.46793299     0.14900
C323        C  0.39414047  0.29049012  0.49014058     0.01800
C324        C  0.38661655  0.32810290  0.47587844    -0.16000
C325        C  0.36756197  0.33690746  0.43963157    -0.10800
C326        C  0.35692038  0.30457973  0.41767371     0.08500
C327        C  0.39235807  0.21924749  0.48055808     0.09500
S328        S  0.41815586  0.28351410  0.53669303    -0.25200
H329        H  0.39754120  0.34986658  0.49355009     0.19800
S330        S  0.33478892  0.30664340  0.36990307    -0.30900
H331        H  0.35774311  0.24299184  0.41502658     0.10100
C332        C  0.36184177  0.19903642  0.49341468     0.03300
C333        C  0.37053033  0.15979743  0.50223326    -0.13200
C334        C  0.40909409  0.14002564  0.49798364    -0.08800
C335        C  0.43977958  0.16075517  0.48560137     0.06800
C336        C  0.43113996  0.20023529  0.47748978    -0.13900
S337        S  0.31186010  0.22335804  0.49864776    -0.30800
H338        H  0.34699687  0.14436372  0.51232441     0.11000
S339        S  0.48965405  0.13825076  0.47695454    -0.27900
H340        H  0.45446278  0.21596687  0.46725751     0.08200
H341        H  0.30658932  0.33894355  0.37522978     0.26700
H342        H  0.29490098  0.19135592  0.51228041     0.21500
H343        H  0.47783853  0.10541137  0.45881080     0.26800
H344        H  0.39990999  0.25128981  0.54744381     0.15600
C345        C  0.36035359  0.24101095  0.09947625    -0.11700
C346        C  0.37907613  0.20859187  0.07987659     0.14900
C347        C  0.40754910  0.21386475  0.05154931     0.01800
C348        C  0.41702153  0.25110686  0.04408575    -0.16000
C349        C  0.39820643  0.28403730  0.06347782    -0.10800
C350        C  0.36905282  0.27837250  0.09158449     0.08500
C351        C  0.36721183  0.17005173  0.08918041     0.09500
S352        S  0.43296569  0.17448500  0.02370225    -0.25200
H353        H  0.43931924  0.25421591  0.02256376     0.19800
S354        S  0.34108715  0.31678472  0.11868992    -0.30900
H355        H  0.33825173  0.23714915  0.12102056     0.10100
C356        C  0.39193559  0.14218853  0.11012681     0.03300
C357        C  0.37894957  0.10664223  0.11851622    -0.13200
C358        C  0.34112039  0.09712043  0.10707361    -0.08800
C359        C  0.31663421  0.12583374  0.08438233     0.06800
C360        C  0.33005014  0.16165927  0.07692045    -0.13900
S361        S  0.43989480  0.15217390  0.12719397    -0.30800
H362        H  0.39843781  0.08597238  0.13526229     0.11000
S363        S  0.27021442  0.11911666  0.06078587    -0.27900
H364        H  0.31186516  0.18348460  0.06024822     0.08200
H365        H  0.32850873  0.33871640  0.08594246     0.26700
H366        H  0.44929525  0.11827637  0.14902759     0.21500
H367        H  0.25900306  0.15683931  0.04704691     0.26800
H368        H  0.40405321  0.14934891  0.02659620     0.15600
C369        C  0.33096980  0.04188082  0.31675316    -0.11700
C370        C  0.35890779  0.02997314  0.28815507     0.14900
C371        C  0.39623782  0.01057148  0.29948106     0.01800
C372        C  0.40379346  0.00142171  0.33847493    -0.16000
C373        C  0.37547120  0.01214902  0.36742180    -0.10800
C374        C  0.33856619  0.03323918  0.35591841     0.08500
C375        C  0.34798801  0.03712882  0.24674730     0.09500
S376        S  0.43574940  0.99714183  0.26558265    -0.25200
H377        H  0.43259473  0.98626593  0.34626034     0.19800
S378        S  0.29903981  0.04923687  0.38889769    -0.30900
H379        H  0.30241437  0.05717390  0.30831821     0.10100
C380        C  0.34280106  0.00673227  0.22131304     0.03300
C381        C  0.33540457  0.01455844  0.18206737    -0.13200
C382        C  0.33477083  0.05200089  0.16610168    -0.08800
C383        C  0.33341715  0.08315892  0.19355675     0.06800
C384        C  0.34148484  0.07503349  0.23289535    -0.13900
S385        S  0.34513254  0.95775295  0.23879658    -0.30800
H386        H  0.33229166  0.99061295  0.16325395     0.11000
S387        S  0.31529921  0.13299500  0.18230984    -0.27900
H388        H  0.34190034  0.09847399  0.25340125     0.08200
H389        H  0.30214989  0.01411221  0.40887809     0.26700
H390        H  0.34214523  0.93980929  0.20264792     0.21500
H391        H  0.33313123  0.14973772  0.21384331     0.26800
H392        H  0.42476925  0.02747846  0.23948366     0.15600
C393        C  0.24583326  0.00437225  0.07871377    -0.11700
C394        C  0.21328770  0.03121382  0.08765508     0.14900
C395        C  0.21835888  0.06202087  0.11284000     0.01800
C396        C  0.25687010  0.06759806  0.12440494    -0.16000
C397        C  0.29085089  0.04397883  0.11048955    -0.10800
C398        C  0.28372898  0.00848302  0.09215563     0.08500
C399        C  0.17447481  0.02235690  0.07361111     0.09500
S400        S  0.17768669  0.09570798  0.13069350    -0.25200
H401        H  0.26040838  0.09234355  0.14231821     0.19800
S402        S  0.31741918  0.96385581  0.09288342    -0.30900
H403        H  0.24084684  0.97837706  0.06319867     0.10100
C404        C  0.15406975  0.04275219  0.04287447     0.03300
C405        C  0.11903979  0.03045968  0.02851356    -0.13200
C406        C  0.10470495  0.99803731  0.04419858    -0.08800
C407        C  0.12584241  0.97711627  0.07416006     0.06800
C408        C  0.16046910  0.98950012  0.08855272    -0.13900
S409        S  0.17257062  0.08422699  0.02213747    -0.30800
H410        H  0.10200097  0.04683195  0.00615216     0.11000
S411        S  0.10880516  0.93440515  0.09402334    -0.27900
H412        H  0.17710036  0.97338219  0.11134387     0.08200
H413        H  0.30295858  0.94793649  0.05906240     0.26700
H414        H  0.14277318  0.09190282  0.99378051     0.21500
H415        H  0.13622742  0.92922623  0.12477952     0.26800
H416        H  0.14651520  0.07482728  0.12062519     0.15600
C417        C  0.03494516  0.36013354  0.21472770    -0.11700
C418        C  0.00040153  0.38478385  0.22362723     0.14900
C419        C  0.97553750  0.39990525  0.19325717     0.01800
C420        C  0.98723653  0.39278635  0.15506917    -0.16000
C421        C  0.02383543  0.37054880  0.14500720    -0.10800
C422        C  0.04600175  0.35136158  0.17631021     0.08500
C423        C  0.99190215  0.39561926  0.26461194     0.09500
S424        S  0.92767862  0.42777258  0.20110301    -0.25200
H425        H  0.96584832  0.40371454  0.13333231     0.19800
S426        S  0.08960424  0.31696664  0.16889469    -0.30900
H427        H  0.05359167  0.34801637  0.23827455     0.10100
C428        C  0.98643242  0.36789502  0.29298295     0.03300
C429        C  0.97847737  0.37988936  0.33123375    -0.13200
C430        C  0.97531810  0.41909342  0.34177062    -0.08800
C431        C  0.98166893  0.44664736  0.31337873     0.06800
C432        C  0.98967376  0.43465722  0.27532202    -0.13900
S433        S  0.98742119  0.31751938  0.28024642    -0.30800
H434        H  0.97351779  0.35877176  0.35287581     0.11000
S435        S  0.98152641  0.49729552  0.32390270    -0.27900
H436        H  0.99462049  0.45596452  0.25381493     0.08200
H437        H  0.09929481  0.30885025  0.20779838     0.26700
H438        H  0.98201054  0.30386313  0.31772877     0.21500
H439        H  0.99833360  0.49176131  0.36096421     0.26800
H440        H  0.92012487  0.41078899  0.23656480     0.15600
C441        C  0.13850263  0.40467086  0.09898767    -0.11700
C442        C  0.14966328  0.39661671  0.06076753     0.14900
C443        C  0.12335254  0.38028064  0.03613449     0.01800
C444        C  0.08797202  0.37015240  0.05081204    -0.16000
C445        C  0.07691830  0.37552042  0.09009123    -0.10800
C446        C  0.10179720  0.39689975  0.11342941     0.08500
C447        C  0.18922435  0.40510453  0.04779254     0.09500
S448        S  0.13306394  0.37163008  0.98553411    -0.25200
H449        H  0.06893632  0.35692366  0.03109918     0.19800
S450        S  0.08669828  0.42137143  0.15818116    -0.30900
H451        H  0.15829755  0.41888158  0.11712918     0.10100
C452        C  0.19948232  0.44305236  0.04789602     0.03300
C453        C  0.23831431  0.44910411  0.03849597    -0.13200
C454        C  0.26699344  0.41813160  0.02853821    -0.08800
C455        C  0.25612215  0.38042186  0.02653450     0.06800
C456        C  0.21758564  0.37431053  0.03655404    -0.13900
S457        S  0.16320121  0.48383457  0.05984617    -0.30800
H458        H  0.24683954  0.47790927  0.04016459     0.11000
S459        S  0.28988969  0.33884652  0.01174915    -0.27900
H460        H  0.20973622  0.34518510  0.03607614     0.08200
H461        H  0.12384694  0.43095706  0.17008244     0.26700
H462        H  0.18770796  0.51269410  0.05353994     0.21500
H463        H  0.31595731  0.35913978  0.99113036     0.26800
H464        H  0.15412829  0.40331172  0.98028444     0.15600
C465        C  0.99023544  0.18073274  0.10530583    -0.11700
C466        C  0.99670113  0.20494500  0.07444739     0.14900
C467        C  0.99134630  0.19199909  0.03632147     0.01800
C468        C  0.97931517  0.15559945  0.02989603    -0.16000
C469        C  0.97207338  0.13153608  0.06077685    -0.10800
C470        C  0.97763711  0.14455757  0.09899904     0.08500
C471        C  0.00814737  0.24382803  0.08291385     0.09500
S472        S  0.99882940  0.22095142  0.99481438    -0.25200
H473        H  0.97560172  0.14598473  0.00045874     0.19800
S474        S  0.96768364  0.11737076  0.14110809    -0.30900
H475        H  0.99418766  0.19053788  0.13463765     0.10100
C476        C  0.98097126  0.27328348  0.09852144     0.03300
C477        C  0.99206635  0.31018486  0.10380001    -0.13200
C478        C  0.03048427  0.31962096  0.09481045    -0.08800
C479        C  0.05895131  0.28781105  0.08160226     0.06800
C480        C  0.04662811  0.25131935  0.07511101    -0.13900
S481        S  0.93114355  0.26450566  0.11004844    -0.30800
H482        H  0.96954634  0.33266679  0.11367410     0.11000
S483        S  0.11107601  0.28752198  0.07084495    -0.27900
H484        H  0.06763691  0.22789368  0.06400835     0.08200
H485        H  0.93349478  0.10419342  0.12555250     0.26700
H486        H  0.91703001  0.30206462  0.12277391     0.21500
H487        H  0.12163293  0.31202220  0.09987295     0.26800
H488        H  0.97897886  0.25494736  0.01096866     0.15600
C489        C  0.98491318  0.15525724  0.42068197    -0.11700
C490        C  0.95727837  0.16757929  0.44924217     0.14900
C491        C  0.93752163  0.13992629  0.46762820     0.01800
C492        C  0.94722200  0.10075245  0.45856670    -0.16000
C493        C  0.97969836  0.08684319  0.43443041    -0.10800
C494        C  0.99567439  0.11581074  0.41226464     0.08500
C495        C  0.95009119  0.20946047  0.45903852     0.09500
S496        S  0.90089615  0.15255520  0.50439827    -0.25200
H497        H  0.92925157  0.08126362  0.47185195     0.19800
S498        S  0.03022945  0.10429735  0.37336830    -0.30900
H499        H  0.99852640  0.17699446  0.40529445     0.10100
C500        C  0.97982721  0.22773994  0.47733456     0.03300
C501        C  0.97362746  0.26779753  0.48356461    -0.13200
C502        C  0.93794814  0.29024007  0.47256932    -0.08800
C503        C  0.90773952  0.27169406  0.45506616     0.06800
C504        C  0.91404088  0.23155716  0.44869427    -0.13900
S505        S  0.02530647  0.19975800  0.49384414    -0.30800
H506        H  0.99659757  0.28174487  0.49753636     0.11000
S507        S  0.86157011  0.29778675  0.43831977    -0.27900
H508        H  0.89113080  0.21759466  0.43458220     0.08200
H509        H  0.03683731  0.14207914  0.36392705     0.26700
H510        H  0.04230109  0.23059217  0.51054834     0.21500
H511        H  0.87796892  0.33073896  0.42634844     0.26800
H512        H  0.92065050  0.18135924  0.52153279     0.15600
C513        C  0.09665782  0.97962581  0.44939569    -0.11700
C514        C  0.12057662  0.00764145  0.45944777     0.14900
C515        C  0.10426272  0.04679272  0.45881126     0.01800
C516        C  0.06403098  0.05684034  0.44990105    -0.16000
C517        C  0.03901016  0.02921858  0.43842527    -0.10800
C518        C  0.05676418  0.98939838  0.43851792     0.08500
C519        C  0.16232162  0.99470577  0.47085222     0.09500
S520        S  0.13294532  0.08566305  0.46948603    -0.25200
H521        H  0.05274694  0.08691216  0.45315275     0.19800
S522        S  0.03141037  0.94992856  0.42158566    -0.30900
H523        H  0.10984454  0.94967432  0.44965361     0.10100
C524        C  0.17520482  0.99657871  0.50950151     0.03300
C525        C  0.21539402  0.98572497  0.51861680    -0.13200
C526        C  0.24281728  0.97251763  0.48994864    -0.08800
C527        C  0.22938965  0.96829612  0.45166101     0.06800
C528        C  0.18936095  0.97965774  0.44250727    -0.13900
S529        S  0.14044311  0.01247684  0.54722622    -0.30800
H530        H  0.22577341  0.98846415  0.54801029     0.11000
S531        S  0.26152878  0.94865205  0.41323641    -0.27900
H532        H  0.17923701  0.97715755  0.41296997     0.08200
H533        H  0.06096509  0.91906326  0.43025932     0.26700
H534        H  0.16892895  0.01622963  0.57619115     0.21500
H535        H  0.29190757  0.92975489  0.43663542     0.26800
H536        H  0.17009296  0.06617053  0.45892183     0.15600
C537        C  0.91190191  0.98561730  0.26341132    -0.11700
C538        C  0.92675843  0.01939104  0.27559957     0.14900
C539        C  0.93096992  0.04857960  0.24851501     0.01800
C540        C  0.92308997  0.04230293  0.20958252    -0.16000
C541        C  0.91051084  0.00765742  0.19672153    -0.10800
C542        C  0.90384213  0.97936484  0.22423639     0.08500
C543        C  0.94328170  0.02143764  0.31505496     0.09500
S544        S  0.94897400  0.09337619  0.26145341    -0.25200
H545        H  0.92814180  0.06421534  0.18885171     0.19800
S546        S  0.88847354  0.93353603  0.21102115    -0.30900
H547        H  0.90888354  0.96304726  0.28416827     0.10100
C548        C  0.91963356  0.03465346  0.34640264     0.03300
C549        C  0.93763884  0.04039072  0.38196201    -0.13200
C550        C  0.97929481  0.03248885  0.38826833    -0.08800
C551        C  0.00312633  0.01942963  0.35538049     0.06800
C552        C  0.98436795  0.01383881  0.31986709    -0.13900
S553        S  0.86654600  0.04587404  0.34080124    -0.30800
H554        H  0.91870558  0.05081093  0.40570798     0.11000
S555        S  0.05697132  0.01325714  0.35425766    -0.27900
H556        H  0.00193551  0.00497384  0.29467522     0.08200
H557        H  0.91414509  0.92699357  0.17935184     0.26700
H558        H  0.85914245  0.06298530  0.37731625     0.21500
H559        H  0.06252280  0.99626475  0.31751020     0.26800
H560        H  0.93399480  0.09562219  0.29918862     0.15600
C561        C  0.48651235  0.93858794  0.04528506    -0.11700
C562        C  0.44590494  0.93673816  0.04479239     0.14900
C563        C  0.43149178  0.90684314  0.02366392     0.01800
C564        C  0.45703923  0.88334198  0.99918586    -0.16000
C565        C  0.49752308  0.88833830  0.99535679    -0.10800
C566        C  0.51289495  0.91257842  0.02422926     0.08500
C567        C  0.41944069  0.96797492  0.06445183     0.09500
S568        S  0.38047614  0.89861302  0.02548532    -0.25200
H569        H  0.44438847  0.86284723  0.98083688     0.19800
S570        S  0.56412095  0.90962188  0.04041212    -0.30900
H571        H  0.49782739  0.96041703  0.06299602     0.10100
C572        C  0.42232474  0.97547088  0.10422904     0.03300
C573        C  0.39728573  0.00620193  0.12085180    -0.13200
C574        C  0.36630425  0.02796422  0.09956882    -0.08800
C575        C  0.36732852  0.02285837  0.05842833     0.06800
C576        C  0.39356641  0.99302814  0.04185779    -0.13900
S577        S  0.45635416  0.94458453  0.13450518    -0.30800
H578        H  0.40179375  0.01229545  0.15093995     0.11000
S579        S  0.33407494  0.05155402  0.02588332    -0.27900
H580        H  0.39365172  0.98862411  0.01090134     0.08200
H581        H  0.55701020  0.92668167  0.07700383     0.26700
H582        H  0.45103671  0.96696879  0.16836350     0.21500
H583        H  0.34156273  0.02888700  0.99244669     0.26800
H584        H  0.37797176  0.90508236  0.06551441     0.15600
C585        C  0.52148713  0.75984305  0.00253143    -0.11700
C586        C  0.50408469  0.74130972  0.97224622     0.14900
C587        C  0.49021367  0.76310758  0.93979306     0.01800
C588        C  0.49410947  0.80247837  0.93818763    -0.16000
C589        C  0.51476000  0.82161882  0.96686542    -0.10800
C590        C  0.52662824  0.79924931  0.00067579     0.08500
C591        C  0.49691401  0.70036067  0.97692221     0.09500
S592        S  0.46700484  0.74231424  0.89910947    -0.25200
H593        H  0.48006112  0.81769532  0.91368872     0.19800
S594        S  0.54773882  0.81945165  0.04278134    -0.30900
H595        H  0.53030381  0.74333931  0.02828895     0.10100
C596        C  0.52790976  0.66927420  0.97555505     0.03300
C597        C  0.51931714  0.63112060  0.98042682    -0.13200
C598        C  0.48022108  0.62342666  0.98657474    -0.08800
C599        C  0.44916239  0.65469601  0.98573010     0.06800
C600        C  0.45788654  0.69255736  0.98181757    -0.13900
S601        S  0.57825988  0.67827980  0.96726252    -0.30800
H602        H  0.54319881  0.60735656  0.98051638     0.11000
S603        S  0.39749360  0.64821725  0.98755930    -0.27900
H604        H  0.43386794  0.71624690  0.98190265     0.08200
H605        H  0.56545875  0.78440941  0.05890855     0.26700
H606        H  0.59541921  0.63936703  0.96700362     0.21500
H607        H  0.40200070  0.61387288  0.96569436     0.26800
H608        H  0.48895354  0.70538578  0.90201996     0.15600
C609        C  0.70019706  0.88982254  0.01913084    -0.11700
C610        C  0.68669926  0.89366153  0.98076051     0.14900
C611        C  0.70962089  0.91037276  0.95332853     0.01800
C612        C  0.74515274  0.92297373  0.96480763    -0.16000
C613        C  0.75931778  0.91868875  0.00307638    -0.10800
C614        C  0.73641600  0.90159962  0.03048192     0.08500
C615        C  0.64648930  0.88456399  0.97129278     0.09500
S616        S  0.69512694  0.91663711  0.90325936    -0.25200
H617        H  0.76222117  0.93593566  0.94328054     0.19800
S618        S  0.75195963  0.89277307  0.07975989    -0.30900
H619        H  0.68226939  0.87759427  0.04042663     0.10100
C620        C  0.63595628  0.84714573  0.97439086     0.03300
C621        C  0.59647214  0.84116366  0.96798492    -0.13200
C622        C  0.56587614  0.87236454  0.96237076    -0.08800
C623        C  0.57809708  0.90965452  0.95549020     0.06800
C624        C  0.61788509  0.91492934  0.96044660    -0.13900
S625        S  0.67269942  0.80674836  0.98638266    -0.30800
H626        H  0.59013115  0.81175817  0.96803340     0.11000
S627        S  0.54378719  0.95255811  0.94526250    -0.27900
H628        H  0.62671270  0.94350964  0.95786218     0.08200
H629        H  0.79135241  0.87901263  0.07032981     0.26700
H630        H  0.64561195  0.78146965  0.99705366     0.21500
H631        H  0.57120927  0.97926499  0.94225840     0.26800
H632        H  0.67481225  0.88406619  0.90100173     0.15600
C633        C  0.46775220  0.91524397  0.86798392    -0.11700
C634        C  0.49065285  0.89535137  0.83916302     0.14900
C635        C  0.52284835  0.86807253  0.85006585     0.01800
C636        C  0.53008190  0.86005904  0.88909748    -0.16000
C637        C  0.50721715  0.87930776  0.91939837    -0.10800
C638        C  0.47565767  0.90874123  0.90756799     0.08500
C639        C  0.48098754  0.90492944  0.79805674     0.09500
S640        S  0.55657813  0.84266729  0.81578267    -0.25200
H641        H  0.55445925  0.83794328  0.89609579     0.19800
S642        S  0.44765950  0.94344176  0.93904113    -0.30900
H643        H  0.44409768  0.93736452  0.85911727     0.10100
C644        C  0.46764009  0.87785199  0.77236359     0.03300
C645        C  0.46053653  0.88786584  0.73340948    -0.13200
C646        C  0.46495941  0.92493976  0.71983243    -0.08800
C647        C  0.47702555  0.95245580  0.74604424     0.06800
C648        C  0.48505847  0.94207867  0.78462517    -0.13900
S649        S  0.45718811  0.83150070  0.78971698    -0.30800
H650        H  0.44985481  0.86731926  0.71376767     0.11000
S651        S  0.48288656  0.00127004  0.73244349    -0.27900
H652        H  0.49485111  0.96312262  0.80438755     0.08200
H653        H  0.41349003  0.95054303  0.91563381     0.26700
H654        H  0.45029313  0.81554255  0.75333047     0.21500
H655        H  0.49075465  0.99387044  0.69323282     0.26800
H656        H  0.55273305  0.87161220  0.78741937     0.15600
C657        C  0.95924640  0.40844704  0.02117546    -0.11700
C658        C  0.95763456  0.44790460  0.02923559     0.14900
C659        C  0.98169864  0.45950265  0.05923758     0.01800
C660        C  0.00520533  0.43155141  0.08107237    -0.16000
C661        C  0.00673077  0.39122107  0.07410287    -0.10800
C662        C  0.98529240  0.38041505  0.04075903     0.08500
C663        C  0.93010413  0.47591048  0.00611946     0.09500
S664        S  0.98428404  0.50950773  0.07109392    -0.25200
H665        H  0.02271736  0.44156898  0.10429450     0.19800
S666        S  0.99332667  0.33360427  0.01754072    -0.30900
H667        H  0.94078890  0.39956208  0.99804362     0.10100
C668        C  0.93160481  0.47715998  0.96556844     0.03300
C669        C  0.90355013  0.50242089  0.94507305    -0.13200
C670        C  0.87469864  0.52933195  0.96358601    -0.08800
C671        C  0.87296293  0.52643219  0.00500511     0.06800
C672        C  0.90034694  0.50001783  0.02509230    -0.13900
S673        S  0.97016430  0.44744710  0.93936423    -0.30800
H674        H  0.90515029  0.50075311  0.91415892     0.11000
S675        S  0.83648239  0.55587032  0.03401597    -0.27900
H676        H  0.89839157  0.49767749  0.05614831     0.08200
H677        H  0.97982645  0.34550397  0.98043910     0.26700
H678        H  0.95421715  0.45439150  0.90207873     0.21500
H679        H  0.85464026  0.54833825  0.07028958     0.26800
H680        H  0.97805748  0.52344745  0.03321749     0.15600
C681        C  0.87570334  0.48863268  0.75899562    -0.11700
C682        C  0.86951224  0.52747457  0.77074332     0.14900
C683        C  0.87250987  0.55652601  0.74289941     0.01800
C684        C  0.88248563  0.54608226  0.70461991    -0.16000
C685        C  0.88922397  0.50713610  0.69295841    -0.10800
C686        C  0.88479122  0.47816480  0.72052788     0.08500
C687        C  0.86163485  0.53632192  0.81248581     0.09500
S688        S  0.86389793  0.60740637  0.75425565    -0.25200
H689        H  0.88534037  0.56862986  0.68379342     0.19800
S690        S  0.88834707  0.42784580  0.70673132    -0.30900
H691        H  0.87333470  0.46640738  0.78025515     0.10100
C692        C  0.82784478  0.52636824  0.83109616     0.03300
C693        C  0.82245257  0.53387950  0.87074318    -0.13200
C694        C  0.85069058  0.55033055  0.89405582    -0.08800
C695        C  0.88447919  0.56128182  0.87381393     0.06800
C696        C  0.88915630  0.55394626  0.83409745    -0.13900
S697        S  0.79008307  0.50573997  0.80393989    -0.30800
H698        H  0.79472138  0.52794704  0.88246808     0.11000
S699        S  0.92287327  0.58656829  0.89452413    -0.27900
H700        H  0.91509400  0.56190668  0.81969294     0.08200
H701        H  0.88026687  0.41321701  0.74319580     0.26700
H702        H  0.77031177  0.49267677  0.83588909     0.21500
H703        H  0.92797147  0.56698968  0.92955980     0.26800
H704        H  0.83639055  0.60436694  0.78382613     0.15600
C705        C  0.73565205  0.55290814  0.98188658    -0.11700
C706        C  0.73460588  0.51295321  0.98136214     0.14900
C707        C  0.76737450  0.48902263  0.96628667     0.01800
C708        C  0.79906506  0.50541108  0.95074482    -0.16000
C709        C  0.80207015  0.54570721  0.95220919    -0.10800
C710        C  0.76912150  0.56962460  0.96981552     0.08500
C711        C  0.69791711  0.49738550  0.99429293     0.09500
S712        S  0.77172672  0.43696068  0.96752615    -0.25200
H713        H  0.82308347  0.48576689  0.93853700     0.19800
S714        S  0.76792872  0.62044912  0.98124390    -0.30900
H715        H  0.70996954  0.57116857  0.99285966     0.10100
C716        C  0.68160284  0.50481380  0.03149812     0.03300
C717        C  0.64477597  0.49269947  0.04050079    -0.13200
C718        C  0.62451044  0.47227296  0.01351389    -0.08800
C719        C  0.64304423  0.46142786  0.97799489     0.06800
C720        C  0.67846572  0.47521691  0.96825263    -0.13900
S721        S  0.70753165  0.52955299  0.06763288    -0.30800
H722        H  0.63090751  0.50063015  0.06791921     0.11000
S723        S  0.62336545  0.42924773  0.94420635    -0.27900
H724        H  0.69103215  0.46851350  0.93999589     0.08200
H725        H  0.73478661  0.62484713  0.00567491     0.26700
H726        H  0.68100070  0.52602067  0.09798763     0.21500
H727        H  0.60421299  0.40928110  0.97216856     0.26800
H728        H  0.74995463  0.43485115  0.00163973     0.15600
C729        C  0.83878198  0.67057660  0.92847236    -0.11700
C730        C  0.86465450  0.67933039  0.95782865     0.14900
C731        C  0.88220062  0.64951541  0.98174675     0.01800
C732        C  0.87529277  0.61162397  0.97487107    -0.16000
C733        C  0.84833928  0.60136357  0.94621164    -0.10800
C734        C  0.83027588  0.63261261  0.92219452     0.08500
C735        C  0.87434224  0.71937355  0.96241333     0.09500
S736        S  0.91481096  0.65779217  0.02144003    -0.25200
H737        H  0.89295267  0.59045556  0.99219514     0.19800
S738        S  0.79645797  0.62772976  0.88243605    -0.30900
H739        H  0.82524093  0.69365680  0.90995866     0.10100
C740        C  0.91262019  0.72872273  0.95432938     0.03300
C741        C  0.92211952  0.76565791  0.96361446    -0.13200
C742        C  0.89392694  0.79363707  0.98022256    -0.08800
C743        C  0.85534422  0.78447678  0.98744735     0.06800
C744        C  0.84588513  0.74763601  0.97819826    -0.13900
S745        S  0.94938506  0.69355263  0.93221897    -0.30800
H746        H  0.95153524  0.77289073  0.95786303     0.11000
S747        S  0.81744419  0.81791413  0.00990090    -0.27900
H748        H  0.81661115  0.74042779  0.98478223     0.08200
H749        H  0.77679003  0.59909650  0.89881473     0.26700
H750        H  0.97851932  0.71827094  0.92744343     0.21500
H751        H  0.84348174  0.83426096  0.03484019     0.26800
H752        H  0.89390281  0.69357730  0.03234615     0.15600
C753        C  0.45008628  0.50701282  0.52572844    -0.11700
C754        C  0.43431709  0.47450882  0.53926458     0.14900
C755        C  0.44019013  0.46435113  0.57837626     0.01800
C756        C  0.45779192  0.48882992  0.60330186    -0.16000
C757        C  0.47744151  0.51957112  0.58966092    -0.10800
C758        C  0.47398085  0.52746991  0.54896140     0.08500
C759        C  0.41468384  0.45100407  0.51068577     0.09500
S760        S  0.42957581  0.41898834  0.59806372    -0.25200
H761        H  0.45766866  0.48148896  0.63334309     0.19800
S762        S  0.50165737  0.56113815  0.52434999    -0.30900
H763        H  0.44537100  0.51517819  0.49578817     0.10100
C764        C  0.37675163  0.43995692  0.51601768     0.03300
C765        C  0.36159647  0.41625919  0.48834879    -0.13200
C766        C  0.38001501  0.40799728  0.45194697    -0.08800
C767        C  0.41373842  0.42752636  0.44427501     0.06800
C768        C  0.43301594  0.44346960  0.47496239    -0.13900
S769        S  0.34600165  0.45802370  0.55609594    -0.30800
H770        H  0.33468572  0.40435155  0.49519913     0.11000
S771        S  0.42954599  0.44087922  0.39696393    -0.27900
H772        H  0.46139093  0.45343126  0.46984330     0.08200
H773        H  0.48943770  0.55461185  0.48628702     0.26700
H774        H  0.31014986  0.44817828  0.54083567     0.21500
H775        H  0.44996550  0.47169804  0.40836528     0.26800
H776        H  0.43578655  0.39776346  0.56357666     0.15600
C777        C  0.61871509  0.53102279  0.62877199    -0.11700
C778        C  0.63074505  0.50810775  0.59666536     0.14900
C779        C  0.60169597  0.49452215  0.57329198     0.01800
C780        C  0.56162896  0.50472226  0.58174421    -0.16000
C781        C  0.54797463  0.53046663  0.61227501    -0.10800
C782        C  0.57839506  0.54229221  0.63710192     0.08500
C783        C  0.67370415  0.49920027  0.58777467     0.09500
S784        S  0.61370162  0.46395106  0.53175045    -0.25200
H785        H  0.54156837  0.49154431  0.56335544     0.19800
S786        S  0.56982585  0.57001437  0.68115573    -0.30900
H787        H  0.64122699  0.54063811  0.64746522     0.10100
C788        C  0.69457469  0.52739055  0.57151589     0.03300
C789        C  0.73475055  0.51784851  0.56225268    -0.13200
C790        C  0.75507916  0.48061418  0.56897693    -0.08800
C791        C  0.73398785  0.45241861  0.58556573     0.06800
C792        C  0.69354644  0.46187522  0.59427632    -0.13900
S793        S  0.66961274  0.57525659  0.56125886    -0.30800
H794        H  0.75037746  0.53955797  0.54921242     0.11000
S795        S  0.75711863  0.40464917  0.59807979    -0.27900
H796        H  0.67750263  0.44014289  0.60678508     0.08200
H797        H  0.53831207  0.59657178  0.66824892     0.26700
H798        H  0.70299764  0.59093361  0.54773695     0.21500
H799        H  0.79299299  0.41658822  0.61084568     0.26800
H800        H  0.64702807  0.48104264  0.52050981     0.15600
C801        C  0.48855407  0.49814013  0.72070582    -0.11700
C802        C  0.46284972  0.52747372  0.73839798     0.14900
C803        C  0.45361939  0.56279517  0.71920887     0.01800
C804        C  0.46959611  0.56779271  0.68301165    -0.16000
C805        C  0.49129979  0.53708120  0.66172477    -0.10800
C806        C  0.50298124  0.50213504  0.68318441     0.08500
C807        C  0.44997347  0.52243067  0.77865295     0.09500
S808        S  0.42094392  0.60298941  0.73898346    -0.25200
H809        H  0.46337256  0.59662469  0.67187577     0.19800
S810        S  0.53789247  0.46164206  0.66728662    -0.30900
H811        H  0.49773578  0.47172632  0.73655947     0.10100
C812        C  0.42500496  0.49480239  0.78877732     0.03300
C813        C  0.41496915  0.49063870  0.82770956    -0.13200
C814        C  0.42905158  0.51395479  0.85646991    -0.08800
C815        C  0.45141797  0.54363025  0.84558288     0.06800
C816        C  0.46257297  0.54669032  0.80722634    -0.13900
S817        S  0.40625211  0.46470415  0.75227895    -0.30800
H818        H  0.39795864  0.46786731  0.83600663     0.11000
S819        S  0.46691115  0.57848044  0.87928263    -0.27900
H820        H  0.48111268  0.56845354  0.79946062     0.08200
H821        H  0.52623086  0.46032977  0.62870496     0.26700
H822        H  0.38431295  0.44404051  0.77724608     0.21500
H823        H  0.43525237  0.57721704  0.90496539     0.26800
H824        H  0.39717532  0.58064868  0.76017774     0.15600
C825        C  0.43997459  0.64385383  0.59463491    -0.11700
C826        C  0.46962771  0.66725531  0.58908986     0.14900
C827        C  0.50946408  0.65047193  0.58927136     0.01800
C828        C  0.51890868  0.61120801  0.59768230    -0.16000
C829        C  0.48956009  0.58703662  0.60643025    -0.10800
C830        C  0.44877714  0.60438348  0.60228849     0.08500
C831        C  0.45787542  0.70942983  0.58574115     0.09500
S832        S  0.54981001  0.67754446  0.57861258    -0.25200
H833        H  0.54992812  0.60008852  0.59668778     0.19800
S834        S  0.40499532  0.57989125  0.60560251    -0.30900
H835        H  0.40922191  0.65684410  0.59362405     0.10100
C836        C  0.43592372  0.72581548  0.55384161     0.03300
C837        C  0.42456553  0.76592129  0.55263327    -0.13200
C838        C  0.43489518  0.78997926  0.58264488    -0.08800
C839        C  0.45562594  0.77308256  0.61527670     0.06800
C840        C  0.46708539  0.73318441  0.61627632    -0.13900
S841        S  0.42437063  0.69595072  0.51369511    -0.30800
H842        H  0.40921610  0.77877470  0.52740745     0.11000
S843        S  0.46769208  0.80055017  0.65695287    -0.27900
H844        H  0.48295867  0.72040515  0.64130818     0.08200
H845        H  0.41743590  0.55288751  0.63413618     0.26700
H846        H  0.39954447  0.72484695  0.49381848     0.21500
H847        H  0.43365292  0.82806504  0.65435899     0.26800
H848        H  0.52787498  0.70495153  0.55455861     0.15600
C849        C  0.87391753  0.94415859  0.53545745    -0.11700
C850        C  0.91088169  0.95512812  0.54584620     0.14900
C851        C  0.92471620  0.94679462  0.58377081     0.01800
C852        C  0.90152098  0.92869852  0.60930408    -0.16000
C853        C  0.86976246  0.90891759  0.59642436    -0.10800
C854        C  0.85471975  0.91925733  0.55852591     0.08500
C855        C  0.93327235  0.97563527  0.51679906     0.09500
S856        S  0.97344334  0.95412201  0.60104565    -0.25200
H857        H  0.91189288  0.92746231  0.63870141     0.19800
S858        S  0.81315944  0.89938762  0.53678108    -0.30900
H859        H  0.86122631  0.95321070  0.50773625     0.10100
C860        C  0.93567260  0.96409096  0.47770945     0.03300
C861        C  0.95184170  0.98718619  0.45064124    -0.13200
C862        C  0.97252591  0.01842132  0.46144969    -0.08800
C863        C  0.97513351  0.02589746  0.50198824     0.06800
C864        C  0.95232714  0.00733490  0.52796574    -0.13900
S865        S  0.92136894  0.91823799  0.46194504    -0.30800
H866        H  0.95089510  0.97815195  0.42092905     0.11000
S867        S  0.00543185  0.06034941  0.52179381    -0.27900
H868        H  0.94994984  0.01739995  0.55748589     0.08200
H869        H  0.80775745  0.92377390  0.50443798     0.26700
H870        H  0.93721155  0.91797199  0.42454630     0.21500
H871        H  0.00171296  0.05103363  0.56094432     0.26800
H872        H  0.99244114  0.94459903  0.56571061     0.15600
C873        C  0.88735557  0.70300742  0.54179272    -0.11700
C874        C  0.90653801  0.71912539  0.57265398     0.14900
C875        C  0.93721046  0.69606707  0.59286983     0.01800
C876        C  0.94659502  0.65700802  0.58302755    -0.16000
C877        C  0.92656929  0.64083333  0.55281210    -0.10800
C878        C  0.89746314  0.66436722  0.53131644     0.08500
C879        C  0.89204013  0.75921842  0.58452951     0.09500
S880        S  0.96482284  0.71467709  0.63177007    -0.25200
H881        H  0.96877720  0.63889422  0.59971614     0.19800
S882        S  0.87145602  0.64637492  0.49087166    -0.30900
H883        H  0.86387281  0.72054648  0.52613923     0.10100
C884        C  0.89457730  0.79061356  0.55999790     0.03300
C885        C  0.88014756  0.82797700  0.57230812    -0.13200
C886        C  0.86278850  0.83583228  0.60914442    -0.07600
C887        C  0.85998006  0.80282066  0.63347179     0.06800
C888        C  0.87459684  0.76564265  0.62069701    -0.13900
S889        S  0.91888782  0.78354423  0.51376700    -0.30800
H890        H  0.88494303  0.85084520  0.55313303     0.11000
S891        S  0.83831976  0.80413871  0.68114280    -0.27900
H892        H  0.87217353  0.74111506  0.63925022     0.08200
H893        H  0.90259386  0.61817933  0.47942906     0.26700
H894        H  0.91269324  0.82224107  0.50146363     0.21500
H895        H  0.80897829  0.83546606  0.67518331     0.26800
H896        H  0.96266379  0.75233791  0.61697202     0.15600
C897        C  0.94562541  0.92485053  0.78383749    -0.11700
C898        C  0.93029387  0.89018421  0.77591201     0.14900
C899        C  0.93077826  0.86211046  0.80520240     0.01800
C900        C  0.94360141  0.87066591  0.84234938    -0.16000
C901        C  0.95577691  0.90668984  0.85126040    -0.10800
C902        C  0.95841934  0.93335746  0.82110547     0.08500
C903        C  0.91010514  0.88615206  0.73836597     0.09500
S904        S  0.91153041  0.81661607  0.79861209    -0.25200
H905        H  0.94116455  0.85009455  0.86531030     0.19800
S906        S  0.97244831  0.98064928  0.82948323    -0.30900
H907        H  0.94543108  0.94638193  0.76134678     0.10100
C908        C  0.86969665  0.89949063  0.73324000     0.03300
C909        C  0.85151414  0.89543052  0.69718045    -0.13200
C910        C  0.87291887  0.87940128  0.66460603    -0.08800
C911        C  0.91414023  0.86424528  0.67153167     0.06800
C912        C  0.93157403  0.86837057  0.70776997    -0.13900
S913        S  0.84117684  0.92193445  0.77302624    -0.30800
H914        H  0.82015290  0.90445089  0.69544729     0.11000
S915        S  0.94815464  0.83868105  0.63724131    -0.27900
H916        H  0.96259738  0.85744088  0.71232823     0.08200
H917        H  0.00714371  0.96649060  0.84990620     0.26700
H918        H  0.80457724  0.92911834  0.75347035     0.21500
H919        H  0.93824010  0.86115033  0.60457768     0.26800
H920        H  0.91293026  0.81478789  0.75820786     0.15600
C921        C  0.73461469  0.88655862  0.61211772    -0.11700
C922        C  0.72352589  0.92542387  0.62084871     0.14900
C923        C  0.75315156  0.94793683  0.63194819     0.01800
C924        C  0.79304923  0.93126799  0.63319563    -0.16000
C925        C  0.80559844  0.89175426  0.62424008    -0.10800
C926        C  0.77440188  0.86942511  0.61256930     0.08500
C927        C  0.68099354  0.94139053  0.61493949     0.09500
S928        S  0.74216880  0.99845020  0.64398494    -0.25200
H929        H  0.81505371  0.94980540  0.64106801     0.19800
S930        S  0.78122759  0.82127846  0.59202741    -0.30900
H931        H  0.71164456  0.86989402  0.60233445     0.10100
C932        C  0.66753741  0.96009643  0.58032426     0.03300
C933        C  0.62648281  0.96930902  0.57330521    -0.13200
C934        C  0.59835315  0.95950107  0.59985539    -0.08800
C935        C  0.61214214  0.94232873  0.63533603     0.06800
C936        C  0.65302896  0.93326457  0.64226033    -0.13900
S937        S  0.70263322  0.96959942  0.54383357    -0.30800
H938        H  0.61622793  0.98213358  0.54603422     0.11000
S939        S  0.57917404  0.93095943  0.67296113    -0.27900
H940        H  0.66317630  0.91893204  0.66889790     0.08200
H941        H  0.74577319  0.80986410  0.60603997     0.26700
H942        H  0.67476345  0.98828275  0.51761782     0.21500
H943        H  0.54923340  0.96143445  0.66438171     0.26800
H944        H  0.70331137  0.99682983  0.65680908     0.15600
loop_ 
_geom_bond_atom_site_label_1 
_geom_bond_atom_site_label_2 
_geom_bond_distance 
_geom_bond_site_symmetry_2 
_ccdc_geom_bond_type 
C1          C853   1.594       .  S
C1          C886   1.567       .  S
C1          C910   1.586       .  S
C1          C925   1.592       .  S
C2          C757   1.578       .  S
C2          C781   1.586       .  S
C2          C805   1.587       .  S
C2          C829   1.580       .  S
C3          C670   1.593       .  S
C3          C694   1.592       .  S
C3          C709   1.590       .  S
C3          C733   1.578       .  S
C4          C565   1.571       .  S
C4          C589   1.596       .  S
C4          C622   1.568       .  S
C4          C637   1.589       .  S
C5          C493   1.592       .  S
C5          C517   1.575   1_655  S
C5          C550   1.573       .  S
C5          C862   1.584       .  S
C6          C421   1.583       .  S
C6          C445   1.571       .  S
C6          C478   1.580       .  S
C6          C661   1.584       .  S
C7          C358   1.580       .  S
C7          C382   1.588       .  S
C7          C397   1.564       .  S
C7          C574   1.580       .  S
C8          C277   1.585       .  S
C8          C310   1.568       .  S
C8          C325   1.576       .  S
C8          C766   1.579       .  S
Zr9          O10   2.439       .  S
Zr9          O11   2.428       .  S
Zr9          O12   2.406       .  S
Zr9          O15   2.386       .  S
Zr9          O17   2.376       .  S
Zr9          O18   2.375   1_556  S
Zr9          O19   2.398       .  S
Zr9          O20   2.398   1_556  S
O10          H66   0.990       .  S
O10          H74   0.990       .  S
O11          C31   1.282       .  A
O12          C33   1.280       .  A
O13         Zr23   2.465       .  S
O13          C32   1.291       .  A
O14         Zr22   2.461       .  S
O14          C33   1.289       .  A
O15          C32   1.278   1_556  A
O16         Zr24   2.439       .  S
O16          C31   1.285   1_554  A
O17         Zr22   2.396       .  S
O17         Zr24   2.375   1_556  S
O18         Zr23   2.385       .  S
O18         Zr24   2.371       .  S
O18          H53   0.961       .  S
O19         Zr22   2.400       .  S
O19         Zr39   2.399   1_565  S
O19          H56   0.966       .  S
O20         Zr23   2.395       .  S
O20         Zr39   2.401   1_564  S
Zr21         O46   2.440   1_655  S
Zr21         O40   2.427   1_565  S
Zr21         O48   2.406   1_565  S
Zr21         O36   2.392   1_655  S
Zr21         O27   2.392       .  S
Zr21         O28   2.406       .  S
Zr21         O29   2.374   1_565  S
Zr21         O30   2.372   1_565  S
Zr22         O41   2.434   1_665  S
Zr22         O34   2.435   1_655  S
Zr22         O35   2.451   1_656  S
Zr22         O28   2.403   1_556  S
Zr22         O29   2.396   1_566  S
Zr23         O25   2.435   1_565  S
Zr23         O47   2.434       .  S
Zr23         O49   2.449       .  S
Zr23         O27   2.393       .  S
Zr23         O30   2.395   1_565  S
Zr24         O50   2.434       .  S
Zr24         O51   2.436   1_655  S
Zr24         O26   2.436   1_655  S
Zr24         O27   2.399       .  S
Zr24         O28   2.393       .  S
O25          H62   0.990       .  S
O26          H57   0.990       .  S
O26          H71   0.990       .  S
O28          H54   0.965   1_655  S
O29         Zr39   2.376   1_554  S
O30         Zr39   2.382   1_554  S
O30          H55   0.966       .  S
C31         C742   1.475       .  S
C32         C613   1.482       .  S
C33         C901   1.480       .  S
O34          H70   0.990       .  S
O35          C37   1.287       .  A
O36          C37   1.276       .  A
C37         C406   1.462       .  S
O38         Zr39   2.441       .  S
O38          H67   0.990       .  S
Zr39         O42   2.438       .  S
Zr39         O43   2.442   1_556  S
Zr39         O44   2.435   1_556  S
O40          C45   1.282       .  A
O41          H58   0.990   1_545  S
O41          H73   0.990   1_455  S
O42          H59   0.990       .  S
O43          H63   0.990       .  S
O43          H72   0.990       .  S
O44          C45   1.284       .  A
C45         C469   1.485       .  S
O46          H65   0.989       .  S
O46          H69   0.990   1_565  S
O47          H61   0.990       .  S
O47          H68   0.989       .  S
O48          C52   1.280       .  A
O49          C52   1.287   1_565  A
O50          H60   0.990       .  S
O51          H64   0.990       .  S
C52         C541   1.479       .  S
Zr75         O76   2.441       .  S
Zr75         O77   2.450       .  S
Zr75         O78   2.422       .  S
Zr75         O81   2.410       .  S
Zr75         O83   2.373       .  S
Zr75         O84   2.378       .  S
Zr75         O85   2.407       .  S
Zr75         O86   2.403       .  S
O76         H132   0.990       .  S
O76         H140   0.990       .  S
O77          C97   1.287       .  A
O78          C99   1.282       .  A
O79         Zr89   2.437       .  S
O79          C98   1.285       .  A
O80         Zr88   2.461       .  S
O80          C99   1.289       .  A
O81          C98   1.280       .  A
O82         Zr90   2.435       .  S
O82          C97   1.284       .  A
O83         Zr88   2.399       .  S
O83         Zr90   2.378       .  S
O84         Zr89   2.397       .  S
O84         Zr90   2.373       .  S
O84         H119   0.968       .  S
O85         Zr88   2.400       .  S
O85        Zr105   2.400       .  S
O85         H122   0.966       .  S
O86         Zr89   2.396       .  S
O86        Zr105   2.397       .  S
Zr87        O112   2.442   1_655  S
Zr87        O106   2.436       .  S
Zr87        O114   2.428   1_655  S
Zr87        O102   2.424       .  S
Zr87         O93   2.402   1_655  S
Zr87         O94   2.402       .  S
Zr87         O95   2.380       .  S
Zr87         O96   2.374       .  S
Zr88        O107   2.436       .  S
Zr88        O100   2.435       .  S
Zr88        O101   2.457       .  S
Zr88         O94   2.401       .  S
Zr88         O95   2.397       .  S
Zr89         O91   2.436   1_655  S
Zr89        O113   2.435   1_655  S
Zr89        O115   2.446   1_655  S
Zr89         O93   2.392   1_655  S
Zr89         O96   2.386       .  S
Zr90        O116   2.436   1_655  S
Zr90        O117   2.435   1_655  S
Zr90         O92   2.434       .  S
Zr90         O93   2.403   1_655  S
Zr90         O94   2.396       .  S
O91         H128   0.990       .  S
O92         H123   0.990       .  S
O92         H137   0.990       .  S
O94         H120   0.966       .  S
O95        Zr105   2.377       .  S
O96        Zr105   2.370       .  S
O96         H121   0.971       .  S
C97         C685   1.494       .  S
C98         C877   1.465       .  S
C99         C790   1.492       .  S
O100        H136   0.990       .  S
O101        C103   1.290       .  A
O102        C103   1.284       .  A
C103        C502   1.485       .  S
O104       Zr105   2.439       .  S
O104        H133   0.990       .  S
Zr105       O108   2.437       .  S
Zr105       O109   2.440       .  S
Zr105       O110   2.437       .  S
O106        C111   1.285       .  A
O107        H124   0.990       .  S
O107        H139   0.990       .  S
O108        H125   0.990       .  S
O109        H129   0.990       .  S
O109        H138   0.990       .  S
O110        C111   1.285       .  A
C111        C430   1.484       .  S
O112        H131   0.990       .  S
O112        H135   0.990       .  S
O113        H127   0.990       .  S
O113        H134   0.990       .  S
O114        C118   1.284       .  A
O115        C118   1.287       .  A
O116        H126   0.990       .  S
O117        H130   0.990       .  S
C118        C286   1.484       .  S
Zr141       O142   2.440       .  S
Zr141       O143   2.446       .  S
Zr141       O144   2.396       .  S
Zr141       O147   2.409       .  S
Zr141       O149   2.375       .  S
Zr141       O150   2.373   1_556  S
Zr141       O151   2.409       .  S
Zr141       O152   2.398   1_556  S
O142        H198   0.991       .  S
O142        H206   0.990       .  S
O143        C163   1.285       .  A
O144        C165   1.276       .  A
O145       Zr155   2.465       .  S
O145        C164   1.290       .  A
O146       Zr154   2.449       .  S
O146        C165   1.286       .  A
O147        C164   1.280   1_556  A
O148       Zr156   2.428       .  S
O148        C163   1.283   1_554  A
O149       Zr154   2.398       .  S
O149       Zr156   2.374   1_556  S
O150       Zr155   2.394       .  S
O150       Zr156   2.378       .  S
O150        H185   0.966       .  S
O151       Zr154   2.401       .  S
O151       Zr171   2.403       .  S
O151        H188   0.966       .  S
O152       Zr155   2.391       .  S
O152       Zr171   2.405   1_554  S
Zr153       O178   2.440       .  S
Zr153       O172   2.419       .  S
Zr153       O180   2.407       .  S
Zr153       O168   2.427       .  S
Zr153       O159   2.399       .  S
Zr153       O160   2.398       .  S
Zr153       O161   2.369       .  S
Zr153       O162   2.377       .  S
Zr154       O173   2.437       .  S
Zr154       O166   2.436       .  S
Zr154       O167   2.451       .  S
Zr154       O160   2.402   1_556  S
Zr154       O161   2.390   1_556  S
Zr155       O157   2.436       .  S
Zr155       O179   2.436       .  S
Zr155       O181   2.449       .  S
Zr155       O159   2.401       .  S
Zr155       O162   2.397       .  S
Zr156       O182   2.436       .  S
Zr156       O183   2.435       .  S
Zr156       O158   2.435       .  S
Zr156       O159   2.395       .  S
Zr156       O160   2.400       .  S
O157        H194   0.990       .  S
O158        H189   0.990       .  S
O158        H203   0.990       .  S
O160        H186   0.966       .  S
O161       Zr171   2.368   1_554  S
O162       Zr171   2.370   1_554  S
O162        H187   0.967       .  S
C163        C598   1.490       .  S
C164        C718   1.484       .  S
C165        C814   1.475       .  S
O166        H202   0.990       .  S
O167        C169   1.288   1_556  A
O168        C169   1.283       .  A
C169        C454   1.476       .  S
O170       Zr171   2.438       .  S
O170        H199   0.990       .  S
Zr171       O174   2.436       .  S
Zr171       O175   2.438   1_556  S
Zr171       O176   2.454   1_556  S
O172        C177   1.279       .  A
O173        H190   0.990       .  S
O173        H205   0.990       .  S
O174        H191   0.990       .  S
O175        H195   0.990       .  S
O175        H204   0.990       .  S
O176        C177   1.289       .  A
C177        C349   1.505       .  S
O178        H197   0.990       .  S
O178        H201   0.990       .  S
O179        H193   0.990       .  S
O179        H200   0.990       .  S
O180        C184   1.281       .  A
O181        C184   1.288       .  A
O182        H192   0.990       .  S
O183        H196   0.990       .  S
C184        C301   1.471       .  S
Zr207       O208   2.437       .  S
Zr207       O209   2.449       .  S
Zr207       O210   2.431       .  S
Zr207       O213   2.407       .  S
Zr207       O215   2.374       .  S
Zr207       O216   2.379       .  S
Zr207       O217   2.408       .  S
Zr207       O218   2.403       .  S
O208        H264   0.990       .  S
O208        H272   0.990       .  S
O209        C229   1.286       .  A
O210        C231   1.284       .  A
O211       Zr221   2.446       .  S
O211        C230   1.288       .  A
O212       Zr220   2.463   1_565  S
O212        C231   1.290       .  A
O213        C230   1.280       .  A
O214       Zr222   2.427       .  S
O214        C229   1.282       .  A
O215       Zr220   2.397   1_565  S
O215       Zr222   2.381       .  S
O216       Zr221   2.393       .  S
O216       Zr222   2.374       .  S
O216        H251   0.966       .  S
O217       Zr220   2.397   1_565  S
O217       Zr237   2.410       .  S
O217        H254   0.966       .  S
O218       Zr221   2.392       .  S
O218       Zr237   2.400       .  S
Zr219       O244   2.444       .  S
Zr219       O238   2.442       .  S
Zr219       O246   2.421   1_545  S
Zr219       O234   2.412       .  S
Zr219       O225   2.402   1_545  S
Zr219       O226   2.407       .  S
Zr219       O227   2.377       .  S
Zr219       O228   2.375   1_545  S
Zr220       O239   2.435       .  S
Zr220       O232   2.435       .  S
Zr220       O233   2.448       .  S
Zr220       O226   2.404       .  S
Zr220       O227   2.397       .  S
Zr221       O223   2.435       .  S
Zr221       O245   2.437       .  S
Zr221       O247   2.452       .  S
Zr221       O225   2.392       .  S
Zr221       O228   2.392       .  S
Zr222       O248   2.436       .  S
Zr222       O249   2.436   1_565  S
Zr222       O224   2.436   1_565  S
Zr222       O225   2.399       .  S
Zr222       O226   2.395   1_565  S
O223        H260   0.990       .  S
O224        H255   0.990       .  S
O224        H269   0.990       .  S
O226        H252   0.965       .  S
O227       Zr237   2.371   1_545  S
O228       Zr237   2.371       .  S
O228        H253   0.966       .  S
C229        C646   1.482       .  S
C230        C838   1.479       .  S
C231        C934   1.493       .  S
O232        H268   0.990       .  S
O233        C235   1.288       .  A
O234        C235   1.282       .  A
C235        C334   1.480       .  S
O236       Zr237   2.438       .  S
O236        H265   0.991       .  S
Zr237       O240   2.438       .  S
Zr237       O241   2.439       .  S
Zr237       O242   2.445       .  S
O238        C243   1.285       .  A
O239        H256   0.990       .  S
O239        H271   0.990       .  S
O240        H257   0.990       .  S
O241        H261   0.990       .  S
O241        H270   0.990       .  S
O242        C243   1.287   1_565  A
C243        C373   1.505       .  S
O244        H263   0.990       .  S
O244        H267   0.990       .  S
O245        H259   0.990       .  S
O245        H266   0.990       .  S
O246        C250   1.282       .  A
O247        C250   1.287       .  A
O248        H258   0.990       .  S
O249        H262   0.990       .  S
C250        C526   1.472       .  S
C273        C274   1.397       .  A
C273        C278   1.409       .  A
C273        H283   1.083       .  S
C274        C279   1.481       .  S
C274        C275   1.402       .  A
C275        C276   1.394       .  A
C275        S280   1.806       .  S
C276        C277   1.424       .  A
C276        H281   1.077       .  S
C277        C278   1.436       .  A
C278        S282   1.808       .  S
C279        C284   1.409       .  A
C279        C288   1.401       .  A
S280        H296   1.405       .  S
S282        H293   1.406       .  S
C284        C285   1.404       .  A
C284        S289   1.807       .  S
C285        C286   1.405       .  A
C285        H290   1.083       .  S
C286        C287   1.418       .  A
C287        C288   1.401       .  A
C287        S291   1.804       .  S
C288        H292   1.084       .  S
S289        H294   1.406       .  S
S291        H295   1.406       .  S
C297        C298   1.400       .  A
C297        C302   1.398       .  A
C297        H307   1.084       .  S
C298        C303   1.477       .  S
C298        C299   1.413       .  A
C299        C300   1.399       .  A
C299        S304   1.801       .  S
C300        C301   1.401       .  A
C300        H305   1.084       .  S
C301        C302   1.413       .  A
C302        S306   1.804       .  S
C303        C308   1.402       .  A
C303        C312   1.392       .  A
S304        H320   1.404       .  S
S306        H317   1.407       .  S
C308        C309   1.399       .  A
C308        S313   1.808       .  S
C309        C310   1.418       .  A
C309        H314   1.075       .  S
C310        C311   1.441       .  A
C311        C312   1.405       .  A
C311        S315   1.812       .  S
C312        H316   1.083       .  S
S313        H318   1.407       .  S
S315        H319   1.407       .  S
C321        C322   1.393       .  A
C321        C326   1.396       .  A
C321        H331   1.085       .  S
C322        C327   1.473       .  S
C322        C323   1.400       .  A
C323        C324   1.396       .  A
C323        S328   1.805       .  S
C324        C325   1.425       .  A
C324        H329   1.075       .  S
C325        C326   1.441       .  A
C326        S330   1.810       .  S
C327        C332   1.404       .  A
C327        C336   1.402       .  A
S328        H344   1.406       .  S
S330        H341   1.394       .  S
C332        C333   1.397       .  A
C332        S337   1.808       .  S
C333        C334   1.409       .  A
C333        H338   1.082       .  S
C334        C335   1.415       .  A
C335        C336   1.400       .  A
C335        S339   1.801       .  S
C336        H340   1.084       .  S
S337        H342   1.407       .  S
S339        H343   1.407       .  S
C345        C346   1.400       .  A
C345        C350   1.402       .  A
C345        H355   1.084       .  S
C346        C351   1.491       .  S
C346        C347   1.413       .  A
C347        C348   1.404       .  A
C347        S352   1.806       .  S
C348        C349   1.411       .  A
C348        H353   1.083       .  S
C349        C350   1.427       .  A
C350        S354   1.804       .  S
C351        C356   1.401       .  A
C351        C360   1.396       .  A
S352        H368   1.404       .  S
S354        H365   1.404       .  S
C356        C357   1.402       .  A
C356        S361   1.806       .  S
C357        C358   1.423       .  A
C357        H362   1.081       .  S
C358        C359   1.447       .  A
C359        C360   1.411       .  A
C359        S363   1.813       .  S
C360        H364   1.082       .  S
S361        H366   1.407       .  S
S363        H367   1.406       .  S
C369        C370   1.402       .  A
C369        C374   1.406       .  A
C369        H379   1.084       .  S
C370        C375   1.493       .  S
C370        C371   1.412       .  A
C371        C372   1.403       .  A
C371        S376   1.806   1_545  S
C372        C373   1.411       .  A
C372        H377   1.083   1_545  S
C373        C374   1.425       .  A
C374        S378   1.802       .  S
C375        C380   1.404       .  A
C375        C384   1.399       .  A
S376        H392   1.406   1_565  S
S378        H389   1.402       .  S
C380        C381   1.402       .  A
C380        S385   1.807   1_545  S
C381        C382   1.418       .  A
C381        H386   1.073   1_545  S
C382        C383   1.438       .  A
C383        C384   1.411       .  A
C383        S387   1.811       .  S
C384        H388   1.083       .  S
S385        H390   1.407       .  S
S387        H391   1.407       .  S
C393        C394   1.390       .  A
C393        C398   1.391       .  A
C393        H403   1.084   1_545  S
C394        C399   1.473       .  S
C394        C395   1.409       .  A
C395        C396   1.404       .  A
C395        S400   1.806       .  S
C396        C397   1.416       .  A
C396        H401   1.080       .  S
C397        C398   1.437       .  A
C398        S402   1.810   1_545  S
C399        C404   1.410       .  A
C399        C408   1.400   1_545  A
S400        H416   1.403       .  S
S402        H413   1.407       .  S
C404        C405   1.404       .  A
C404        S409   1.805       .  S
C405        C406   1.402   1_545  A
C405        H410   1.083       .  S
C406        C407   1.409       .  A
C407        C408   1.394       .  A
C407        S411   1.808       .  S
C408        H412   1.083       .  S
S409        H414   1.407   1_554  S
S411        H415   1.407       .  S
C417        C418   1.398       .  A
C417        C422   1.408       .  A
C417        H427   1.082       .  S
C418        C423   1.489   1_455  S
C418        C419   1.405   1_455  A
C419        C420   1.396       .  A
C419        S424   1.806       .  S
C420        C421   1.423   1_655  A
C420        H425   1.078       .  S
C421        C422   1.433       .  A
C422        S426   1.802       .  S
C423        C428   1.412       .  A
C423        C432   1.403       .  A
S424        H440   1.406       .  S
S426        H437   1.406       .  S
C428        C429   1.406       .  A
C428        S433   1.807       .  S
C429        C430   1.405       .  A
C429        H434   1.083       .  S
C430        C431   1.415       .  A
C431        C432   1.400       .  A
C431        S435   1.803       .  S
C432        H436   1.084       .  S
S433        H438   1.407       .  S
S435        H439   1.405       .  S
C441        C442   1.398       .  A
C441        C446   1.407       .  A
C441        H451   1.082       .  S
C442        C447   1.488       .  S
C442        C443   1.404       .  A
C443        C444   1.397       .  A
C443        S448   1.803   1_554  S
C444        C445   1.420       .  A
C444        H449   1.080       .  S
C445        C446   1.440       .  A
C446        S450   1.812       .  S
C447        C452   1.413       .  A
C447        C456   1.403       .  A
S448        H464   1.406       .  S
S450        H461   1.406       .  S
C452        C453   1.405       .  A
C452        S457   1.807       .  S
C453        C454   1.402       .  A
C453        H458   1.083       .  S
C454        C455   1.414       .  A
C455        C456   1.401       .  A
C455        S459   1.804       .  S
C456        H460   1.084       .  S
S457        H462   1.407       .  S
S459        H463   1.405   1_554  S
C465        C466   1.401       .  A
C465        C470   1.401       .  A
C465        H475   1.084       .  S
C466        C471   1.487   1_655  S
C466        C467   1.412       .  A
C467        C468   1.401       .  A
C467        S472   1.799   1_554  S
C468        C469   1.405       .  A
C468        H473   1.084       .  S
C469        C470   1.418       .  A
C470        S474   1.801       .  S
C471        C476   1.400   1_455  A
C471        C480   1.396       .  A
S472        H488   1.403   1_556  S
S474        H485   1.407       .  S
C476        C477   1.399       .  A
C476        S481   1.808       .  S
C477        C478   1.425   1_655  A
C477        H482   1.079       .  S
C478        C479   1.450       .  A
C479        C480   1.408       .  A
C479        S483   1.812       .  S
C480        H484   1.085       .  S
S481        H486   1.406       .  S
S483        H487   1.392       .  S
C489        C490   1.397       .  A
C489        C494   1.408       .  A
C489        H499   1.083       .  S
C490        C495   1.489       .  S
C490        C491   1.403       .  A
C491        C492   1.399       .  A
C491        S496   1.801       .  S
C492        C493   1.423       .  A
C492        H497   1.078       .  S
C493        C494   1.436       .  A
C494        S498   1.804   1_655  S
C495        C500   1.409       .  A
C495        C504   1.405       .  A
S496        H512   1.407       .  S
S498        H509   1.406       .  S
C500        C501   1.403       .  A
C500        S505   1.808   1_655  S
C501        C502   1.407       .  A
C501        H506   1.083       .  S
C502        C503   1.415       .  A
C503        C504   1.406       .  A
C503        S507   1.802       .  S
C504        H508   1.084       .  S
S505        H510   1.406       .  S
S507        H511   1.407       .  S
C513        C514   1.392   1_565  A
C513        C518   1.404       .  A
C513        H523   1.083       .  S
C514        C519   1.483   1_545  S
C514        C515   1.406       .  A
C515        C516   1.400       .  A
C515        S520   1.806       .  S
C516        C517   1.420       .  A
C516        H521   1.075       .  S
C517        C518   1.441   1_545  A
C518        S522   1.811       .  S
C519        C524   1.409       .  A
C519        C528   1.403       .  A
S520        H536   1.405       .  S
S522        H533   1.406       .  S
C524        C525   1.404       .  A
C524        S529   1.806   1_565  S
C525        C526   1.403       .  A
C525        H530   1.083       .  S
C526        C527   1.413       .  A
C527        C528   1.401       .  A
C527        S531   1.805       .  S
C528        H532   1.084       .  S
S529        H534   1.407       .  S
S531        H535   1.405       .  S
C537        C538   1.404   1_565  A
C537        C542   1.404       .  A
C537        H547   1.084       .  S
C538        C543   1.479       .  S
C538        C539   1.409       .  A
C539        C540   1.395       .  A
C539        S544   1.805       .  S
C540        C541   1.404       .  A
C540        H545   1.082       .  S
C541        C542   1.416   1_545  A
C542        S546   1.802       .  S
C543        C548   1.397       .  A
C543        C552   1.396       .  A
S544        H560   1.405       .  S
S546        H557   1.407       .  S
C548        C549   1.397       .  A
C548        S553   1.806       .  S
C549        C550   1.423       .  A
C549        H554   1.081       .  S
C550        C551   1.441   1_655  A
C551        C552   1.406   1_455  A
C551        S555   1.816       .  S
C552        H556   1.083   1_655  S
S553        H558   1.407       .  S
S555        H559   1.406   1_545  S
C561        C562   1.390       .  A
C561        C566   1.398       .  A
C561        H571   1.083       .  S
C562        C567   1.487       .  S
C562        C563   1.409       .  A
C563        C564   1.403   1_554  A
C563        S568   1.796       .  S
C564        C565   1.417       .  A
C564        H569   1.083       .  S
C565        C566   1.446   1_556  A
C566        S570   1.816       .  S
C567        C572   1.407       .  A
C567        C576   1.395       .  A
S568        H584   1.406       .  S
S570        H581   1.408       .  S
C572        C573   1.404   1_565  A
C572        S577   1.807       .  S
C573        C574   1.419       .  A
C573        H578   1.077       .  S
C574        C575   1.436       .  A
C575        C576   1.404   1_545  A
C575        S579   1.802       .  S
C576        H580   1.083       .  S
S577        H582   1.407       .  S
S579        H583   1.406   1_554  S
C585        C586   1.398   1_554  A
C585        C590   1.410       .  A
C585        H595   1.083       .  S
C586        C591   1.490       .  S
C586        C587   1.404       .  A
C587        C588   1.399       .  A
C587        S592   1.805       .  S
C588        C589   1.426       .  A
C588        H593   1.078       .  S
C589        C590   1.436   1_556  A
C590        S594   1.802       .  S
C591        C596   1.412       .  A
C591        C600   1.400       .  A
S592        H608   1.406       .  S
S594        H605   1.407       .  S
C596        C597   1.411       .  A
C596        S601   1.805       .  S
C597        C598   1.408       .  A
C597        H602   1.083       .  S
C598        C599   1.417       .  A
C599        C600   1.399       .  A
C599        S603   1.802       .  S
C600        H604   1.084       .  S
S601        H606   1.407       .  S
S603        H607   1.407       .  S
C609        C610   1.404   1_554  A
C609        C614   1.401       .  A
C609        H619   1.084       .  S
C610        C615   1.477       .  S
C610        C611   1.409       .  A
C611        C612   1.393       .  A
C611        S616   1.806       .  S
C612        C613   1.409   1_556  A
C612        H617   1.084       .  S
C613        C614   1.414       .  A
C614        S618   1.799       .  S
C615        C620   1.403       .  A
C615        C624   1.393       .  A
S616        H632   1.406       .  S
S618        H629   1.403       .  S
C620        C621   1.401       .  A
C620        S625   1.805       .  S
C621        C622   1.418       .  A
C621        H626   1.076       .  S
C622        C623   1.438       .  A
C623        C624   1.398       .  A
C623        S627   1.809       .  S
C624        H628   1.083       .  S
S625        H630   1.408       .  S
S627        H631   1.406       .  S
C633        C634   1.397       .  A
C633        C638   1.409       .  A
C633        H643   1.083       .  S
C634        C639   1.489       .  S
C634        C635   1.405       .  A
C635        C636   1.395       .  A
C635        S640   1.806       .  S
C636        C637   1.424       .  A
C636        H641   1.083       .  S
C637        C638   1.444       .  A
C638        S642   1.808       .  S
C639        C644   1.411       .  A
C639        C648   1.403       .  A
S640        H656   1.405       .  S
S642        H653   1.407       .  S
C644        C645   1.407       .  A
C644        S649   1.807       .  S
C645        C646   1.405       .  A
C645        H650   1.081       .  S
C646        C647   1.416       .  A
C647        C648   1.402       .  A
C647        S651   1.805   1_565  S
C648        H652   1.084       .  S
S649        H654   1.406       .  S
S651        H655   1.403   1_545  S
C657        C658   1.398       .  A
C657        C662   1.404       .  A
C657        H667   1.083   1_554  S
C658        C663   1.493       .  S
C658        C659   1.408       .  A
C659        C660   1.399   1_655  A
C659        S664   1.804       .  S
C660        C661   1.421       .  A
C660        H665   1.081       .  S
C661        C662   1.436   1_455  A
C662        S666   1.808       .  S
C663        C668   1.407   1_554  A
C663        C672   1.396       .  A
S664        H680   1.406       .  S
S666        H677   1.407   1_554  S
C668        C669   1.402       .  A
C668        S673   1.810       .  S
C669        C670   1.422       .  A
C669        H674   1.074       .  S
C670        C671   1.441   1_556  A
C671        C672   1.405       .  A
C671        S675   1.812       .  S
C672        H676   1.083       .  S
S673        H678   1.407       .  S
S675        H679   1.406       .  S
C681        C682   1.404       .  A
C681        C686   1.407       .  A
C681        H691   1.083       .  S
C682        C687   1.496       .  S
C682        C683   1.416       .  A
C683        C684   1.406       .  A
C683        S688   1.804       .  S
C684        C685   1.407       .  A
C684        H689   1.084       .  S
C685        C686   1.417       .  A
C686        S690   1.807       .  S
C687        C692   1.405       .  A
C687        C696   1.396       .  A
S688        H704   1.406       .  S
S690        H701   1.407       .  S
C692        C693   1.406       .  A
C692        S697   1.808       .  S
C693        C694   1.425       .  A
C693        H698   1.074       .  S
C694        C695   1.444       .  A
C695        C696   1.405       .  A
C695        S699   1.810       .  S
C696        H700   1.084       .  S
S697        H702   1.407       .  S
S699        H703   1.394       .  S
C705        C706   1.399       .  A
C705        C710   1.411       .  A
C705        H715   1.082       .  S
C706        C711   1.496       .  S
C706        C707   1.405       .  A
C707        C708   1.396       .  A
C707        S712   1.804       .  S
C708        C709   1.424       .  A
C708        H713   1.083       .  S
C709        C710   1.445       .  A
C710        S714   1.811       .  S
C711        C716   1.417   1_556  A
C711        C720   1.403       .  A
S712        H728   1.407   1_556  S
S714        H725   1.407   1_556  S
C716        C717   1.410       .  A
C716        S721   1.806       .  S
C717        C718   1.403       .  A
C717        H722   1.083       .  S
C718        C719   1.415   1_554  A
C719        C720   1.398       .  A
C719        S723   1.803       .  S
C720        H724   1.084       .  S
S721        H726   1.407       .  S
S723        H727   1.407       .  S
C729        C730   1.398       .  A
C729        C734   1.408       .  A
C729        H739   1.084       .  S
C730        C735   1.484       .  S
C730        C731   1.401       .  A
C731        C732   1.392       .  A
C731        S736   1.806   1_556  S
C732        C733   1.422       .  A
C732        H737   1.072       .  S
C733        C734   1.444       .  A
C734        S738   1.809       .  S
C735        C740   1.413       .  A
C735        C744   1.401       .  A
S736        H752   1.406       .  S
S738        H749   1.397       .  S
C740        C741   1.405       .  A
C740        S745   1.807       .  S
C741        C742   1.402       .  A
C741        H746   1.083       .  S
C742        C743   1.414       .  A
C743        C744   1.401       .  A
C743        S747   1.801   1_556  S
C744        H748   1.084       .  S
S745        H750   1.407       .  S
S747        H751   1.404       .  S
C753        C754   1.400       .  A
C753        C758   1.398       .  A
C753        H763   1.082       .  S
C754        C759   1.491       .  S
C754        C755   1.408       .  A
C755        C756   1.397       .  A
C755        S760   1.806       .  S
C756        C757   1.420       .  A
C756        H761   1.073       .  S
C757        C758   1.439       .  A
C758        S762   1.817       .  S
C759        C764   1.407       .  A
C759        C768   1.399       .  A
S760        H776   1.406       .  S
S762        H773   1.406       .  S
C764        C765   1.402       .  A
C764        S769   1.806       .  S
C765        C766   1.424       .  A
C765        H770   1.081       .  S
C766        C767   1.435       .  A
C767        C768   1.396       .  A
C767        S771   1.810       .  S
C768        H772   1.083       .  S
S769        H774   1.407       .  S
S771        H775   1.408       .  S
C777        C778   1.400       .  A
C777        C782   1.408       .  A
C777        H787   1.084       .  S
C778        C783   1.488       .  S
C778        C779   1.401       .  A
C779        C780   1.396       .  A
C779        S784   1.806       .  S
C780        C781   1.426       .  A
C780        H785   1.075       .  S
C781        C782   1.440       .  A
C782        S786   1.809       .  S
C783        C788   1.407       .  A
C783        C792   1.405       .  A
S784        H800   1.406       .  S
S786        H797   1.395       .  S
C788        C789   1.403       .  A
C788        S793   1.808       .  S
C789        C790   1.410       .  A
C789        H794   1.082       .  S
C790        C791   1.417       .  A
C791        C792   1.406       .  A
C791        S795   1.801       .  S
C792        H796   1.084       .  S
S793        H798   1.407       .  S
S795        H799   1.407       .  S
C801        C802   1.399       .  A
C801        C806   1.407       .  A
C801        H811   1.084       .  S
C802        C807   1.483       .  S
C802        C803   1.401       .  A
C803        C804   1.391       .  A
C803        S808   1.808       .  S
C804        C805   1.426       .  A
C804        H809   1.074       .  S
C805        C806   1.440       .  A
C806        S810   1.810       .  S
C807        C812   1.412       .  A
C807        C816   1.400       .  A
S808        H824   1.406       .  S
S810        H821   1.394       .  S
C812        C813   1.407       .  A
C812        S817   1.806       .  S
C813        C814   1.404       .  A
C813        H818   1.083       .  S
C814        C815   1.416       .  A
C815        C816   1.393       .  A
C815        S819   1.807       .  S
C816        H820   1.084       .  S
S817        H822   1.407       .  S
S819        H823   1.407       .  S
C825        C826   1.392       .  A
C825        C830   1.397       .  A
C825        H835   1.085       .  S
C826        C831   1.479       .  S
C826        C827   1.404       .  A
C827        C828   1.397       .  A
C827        S832   1.805       .  S
C828        C829   1.423       .  A
C828        H833   1.076       .  S
C829        C830   1.445       .  A
C830        S834   1.815       .  S
C831        C836   1.409       .  A
C831        C840   1.400       .  A
S832        H848   1.406       .  S
S834        H845   1.393       .  S
C836        C837   1.403       .  A
C836        S841   1.806       .  S
C837        C838   1.405       .  A
C837        H842   1.083       .  S
C838        C839   1.417       .  A
C839        C840   1.397       .  A
C839        S843   1.804       .  S
C840        H844   1.084       .  S
S841        H846   1.407       .  S
S843        H847   1.407       .  S
C849        C850   1.404       .  A
C849        C854   1.407       .  A
C849        H859   1.081       .  S
C850        C855   1.504       .  S
C850        C851   1.411       .  A
C851        C852   1.396       .  A
C851        S856   1.806       .  S
C852        C853   1.423       .  A
C852        H857   1.074       .  S
C853        C854   1.436       .  A
C854        S858   1.811       .  S
C855        C860   1.411       .  A
C855        C864   1.404   1_565  A
S856        H872   1.407       .  S
S858        H869   1.406       .  S
C860        C861   1.400       .  A
C860        S865   1.813       .  S
C861        C862   1.419   1_565  A
C861        H866   1.077       .  S
C862        C863   1.432       .  A
C863        C864   1.406       .  A
C863        S867   1.812   1_655  S
C864        H868   1.080       .  S
S865        H870   1.407       .  S
S867        H871   1.406       .  S
C873        C874   1.402       .  A
C873        C878   1.395       .  A
C873        H883   1.084       .  S
C874        C879   1.480       .  S
C874        C875   1.414       .  A
C875        C876   1.400       .  A
C875        S880   1.803       .  S
C876        C877   1.401       .  A
C876        H881   1.084       .  S
C877        C878   1.411       .  A
C878        S882   1.805       .  S
C879        C884   1.401       .  A
C879        C888   1.395       .  A
S880        H896   1.405       .  S
S882        H893   1.407       .  S
C884        C885   1.398       .  A
C884        S889   1.809       .  S
C885        C886   1.421       .  A
C885        H890   1.070       .  S
C886        C887   1.444       .  A
C887        C888   1.399       .  A
C887        S891   1.811       .  S
C888        H892   1.084       .  S
S889        H894   1.407       .  S
S891        H895   1.396       .  S
C897        C898   1.403       .  A
C897        C902   1.402       .  A
C897        H907   1.084       .  S
C898        C903   1.481       .  S
C898        C899   1.412       .  A
C899        C900   1.399       .  A
C899        S904   1.807       .  S
C900        C901   1.406       .  A
C900        H905   1.084       .  S
C901        C902   1.413       .  A
C902        S906   1.798       .  S
C903        C908   1.402       .  A
C903        C912   1.389       .  A
S904        H920   1.402       .  S
S906        H917   1.405   1_655  S
C908        C909   1.404       .  A
C908        S913   1.808       .  S
C909        C910   1.421       .  A
C909        H914   1.073       .  S
C910        C911   1.451       .  A
C911        C912   1.399       .  A
C911        S915   1.814       .  S
C912        H916   1.085       .  S
S913        H918   1.406       .  S
S915        H919   1.393       .  S
C921        C922   1.392       .  A
C921        C926   1.406       .  A
C921        H931   1.084       .  S
C922        C927   1.493       .  S
C922        C923   1.406       .  A
C923        C924   1.405       .  A
C923        S928   1.802       .  S
C924        C925   1.423       .  A
C924        H929   1.083       .  S
C925        C926   1.450       .  A
C926        S930   1.810       .  S
C927        C932   1.412       .  A
C927        C936   1.402       .  A
S928        H944   1.405       .  S
S930        H941   1.408       .  S
C932        C933   1.410       .  A
C932        S937   1.806       .  S
C933        C934   1.407       .  A
C933        H938   1.083       .  S
C934        C935   1.419       .  A
C935        C936   1.404       .  A
C935        S939   1.804       .  S
C936        H940   1.084       .  S
S937        H942   1.407       .  S
S939        H943   1.404       .  S
