geometry optimzed in LAMMPS
_audit_creation_date              2020-12-01 
_audit_creation_method            'lammps2cif' 
_symmetry_space_group_name_H-M    'P1' 
_symmetry_Int_Tables_number       1 
_symmetry_cell_setting            triclinic 
loop_ 
_symmetry_equiv_pos_as_xyz 
  x,y,z 
_cell_length_a                    36.64258791 
_cell_length_b                    36.872702491346466 
_cell_length_c                    37.787194122630545 
_cell_angle_alpha                 92.89339941574329 
_cell_angle_beta                  89.83300306762905 
_cell_angle_gamma                 90.22911322913583 
loop_ 
_atom_site_label 
_atom_site_type_symbol 
_atom_site_fract_x 
_atom_site_fract_y 
_atom_site_fract_z 
_atom_site_charge 
C1          C  0.20884558  0.21236229  0.21139233     0.87400
C2          C  0.23249799  0.24082795  0.19366021    -0.52900
C3          C  0.25365391  0.26166207  0.21643509     0.10300
C4          C  0.24943510  0.25169871  0.25564515     0.21200
C5          C  0.23677146  0.19047838  0.23222722    -0.53600
C6          C  0.25793726  0.21056394  0.25530302     0.10400
C7          C  0.18710443  0.23359759  0.24020110    -0.53100
C8          C  0.20787996  0.25432979  0.26326478     0.11000
H9          H  0.23362819  0.24313587  0.16514229     0.15500
H10         H  0.26646412  0.26854909  0.27440863     0.01200
H11         H  0.24000390  0.16112008  0.23034436     0.15800
H12         H  0.15747767  0.23361116  0.24126786     0.15600
C13         C  0.10632581  0.45839912  0.42375482     0.30900
C14         C  0.10655591  0.52190480  0.46533605     0.30900
C15         C  0.11871211  0.49266672  0.40601428    -0.05300
C16         C  0.06788739  0.47073646  0.43842306    -0.06100
C17         C  0.12859557  0.45874138  0.45779279    -0.06000
C18         C  0.11875226  0.52462072  0.42673620    -0.05300
C19         C  0.06813145  0.50346702  0.46001412    -0.06100
C20         C  0.12908927  0.49050923  0.47857604    -0.06000
C21         C  0.12373017  0.55242020  0.40419150    -0.31400
N22         N  0.12822958  0.53792171  0.37071988     0.15100
C23         C  0.12404367  0.50147166  0.37139723    -0.31400
H24         H  0.12328881  0.48288506  0.34833813     0.17100
C25         C  0.03181062  0.51235148  0.46675761    -0.30400
N26         N  0.00976083  0.48649637  0.45104551     0.13900
C27         C  0.03129375  0.46140023  0.43333767    -0.30300
C28         C  0.14479909  0.48271212  0.51053688    -0.30600
N29         N  0.15425011  0.44713157  0.50906176     0.14400
H30         H  0.14659213  0.50080902  0.53392787     0.17000
C31         C  0.14342974  0.43214397  0.47733187    -0.30600
H32         H  0.14477320  0.40350768  0.46957143     0.17000
H33         H  0.02088851  0.43904177  0.41679065     0.17000
H34         H  0.12352562  0.58118598  0.41153202     0.17100
H35         H  0.02161756  0.53691025  0.47956654     0.17000
C36         C  0.21290686  0.76273044  0.68050844     0.87400
C37         C  0.23988375  0.78476616  0.65899415    -0.52900
C38         C  0.25959812  0.76464388  0.63440160     0.10300
C39         C  0.25039330  0.72355991  0.63345428     0.21200
C40         C  0.18929769  0.74180205  0.65280426    -0.53600
C41         C  0.20856246  0.72151344  0.62811091     0.10400
C42         C  0.23693491  0.73296098  0.69601381    -0.53100
C43         C  0.25635831  0.71249426  0.67184497     0.11000
H44         H  0.24236854  0.81407788  0.66233748     0.15500
H45         H  0.26617322  0.70686636  0.61354006     0.01200
H46         H  0.15966903  0.74138191  0.65384528     0.15800
H47         H  0.24058746  0.72836762  0.72420567     0.15600
C48         C  0.44434841  0.10250037  0.41705836     0.30900
C49         C  0.49911345  0.09858903  0.46624901     0.30900
C50         C  0.43844609  0.12361737  0.45252001    -0.05300
C51         C  0.45227918  0.06309298  0.42999478    -0.06100
C52         C  0.48261724  0.11428834  0.40535077    -0.06000
C53         C  0.46591109  0.12153403  0.47748870    -0.05300
C54         C  0.48024883  0.06189219  0.45574364    -0.06100
C55         C  0.51006453  0.11223771  0.43016924    -0.06000
C56         C  0.44994973  0.12952645  0.51002413    -0.31400
N57         N  0.41467430  0.13882579  0.50518374     0.15100
C58         C  0.40693272  0.13390945  0.47037777    -0.31400
H59         H  0.37981182  0.13492564  0.45921947     0.17100
C60         C  0.48307593  0.02650635  0.46576523    -0.30400
N61         N  0.45953995  0.00541325  0.44639558     0.13900
C62         C  0.44083644  0.02688578  0.42422846    -0.30300
C63         C  0.54183878  0.12449124  0.41503515    -0.30600
N64         N  0.53429084  0.13415500  0.38169329     0.14400
H65         H  0.56804021  0.12796046  0.42794936     0.17000
C66         C  0.49825814  0.12787888  0.37541906    -0.30600
H67         H  0.48424996  0.13399395  0.35126942     0.17000
H68         H  0.42151065  0.01645337  0.40476465     0.17000
H69         H  0.46265121  0.12690824  0.53560164     0.17100
H70         H  0.50104079  0.01611929  0.48542182     0.17000
C71         C  0.75556179  0.25132528  0.18139384     0.87400
C72         C  0.73271552  0.27634517  0.15908655    -0.52900
C73         C  0.71422422  0.30311125  0.17794126     0.10300
C74         C  0.72084322  0.30272079  0.21843651     0.21200
C75         C  0.78064832  0.27671243  0.20370166    -0.53600
C76         C  0.76288620  0.30319841  0.22352547     0.10400
C77         C  0.72762103  0.23755812  0.20852964    -0.53100
C78         C  0.70964922  0.26410754  0.22780116     0.11000
H79         H  0.72944678  0.27164822  0.13065963     0.15500
H80         H  0.70614605  0.32411966  0.23441809     0.01200
H81         H  0.81002958  0.27318024  0.20467589     0.15800
H82         H  0.72101713  0.20918015  0.21265529     0.15600
C83         C  0.22027879  0.24791465  0.75143126     0.87400
C84         C  0.20414669  0.27827527  0.72900792    -0.52900
C85         C  0.22971027  0.29634082  0.70988033     0.10300
C86         C  0.26887308  0.28283243  0.71542868     0.21200
C87         C  0.24104334  0.22402892  0.72426720    -0.53600
C88         C  0.26604378  0.24183702  0.70528305     0.10400
C89         C  0.24942925  0.26736635  0.77435944    -0.53100
C90         C  0.27496192  0.28626658  0.75610268     0.11000
H91         H  0.17541826  0.28323369  0.72547812     0.15500
H92         H  0.28910613  0.29738086  0.69963088     0.01200
H93         H  0.23567828  0.19517445  0.71970616     0.15800
H94         H  0.24911272  0.26672541  0.80302952     0.15600
C95         C  0.87547532  0.50738143  0.48247935     0.30900
C96         C  0.87535101  0.46317619  0.42141418     0.30900
C97         C  0.84913084  0.51741879  0.45332075    -0.05300
C98         C  0.91291564  0.50465657  0.46225499    -0.06100
C99         C  0.86669157  0.46688585  0.48705334    -0.06000
C100        C  0.84987704  0.49613147  0.42233423    -0.05300
C101        C  0.91294256  0.48138096  0.43084724    -0.06100
C102        C  0.86637488  0.44473719  0.45637795    -0.06000
C103        C  0.83724967  0.51758750  0.39595512    -0.31400
N104        N  0.82666258  0.55036263  0.41050992     0.15100
C105        C  0.83402978  0.55017553  0.44565598    -0.31400
H106        H  0.83165548  0.57329849  0.46425904     0.17100
C107        C  0.94906504  0.47090722  0.42538577    -0.30400
N108        N  0.97093021  0.48847427  0.44970966     0.13900
C109        C  0.94912884  0.50759362  0.47312743    -0.30300
C110        C  0.85393440  0.41092658  0.46571979    -0.30600
N111        N  0.84613625  0.41216965  0.50096627     0.14400
H112        H  0.84922703  0.38754049  0.44782516     0.17000
C113        C  0.85506729  0.44588561  0.51437817    -0.30600
H114        H  0.85258536  0.45475641  0.54198083     0.17000
H115        H  0.95859474  0.52007453  0.49791084     0.17000
H116        H  0.83985023  0.51096114  0.36790993     0.17100
H117        H  0.95857711  0.44986807  0.40695530     0.17000
C118        C  0.75208393  0.79269398  0.21306494     0.87400
C119        C  0.72974964  0.76082967  0.19576390    -0.52900
C120        C  0.70844880  0.74279147  0.21857327     0.10300
C121        C  0.71130724  0.75743222  0.25704522     0.21200
C122        C  0.72356702  0.81638502  0.23304600    -0.53600
C123        C  0.70199764  0.79803221  0.25589651     0.10400
C124        C  0.77353823  0.77452830  0.24216377    -0.53100
C125        C  0.75237249  0.75628537  0.26539588     0.11000
H126        H  0.73056853  0.75147346  0.16815535     0.15500
H127        H  0.69411855  0.74213518  0.27519771     0.01200
H128        H  0.72061528  0.84522642  0.22925335     0.15800
H129        H  0.80311908  0.77445206  0.24317630     0.15600
C130        C  0.73027292  0.17734755  0.69494974     0.87400
C131        C  0.70073114  0.20483420  0.70845215    -0.52900
C132        C  0.68042728  0.21938084  0.68249430     0.10300
C133        C  0.69188471  0.20567994  0.64483845     0.21200
C134        C  0.70854105  0.14930930  0.67190374    -0.53600
C135        C  0.68867615  0.16401737  0.64574823     0.10400
C136        C  0.75286742  0.19880154  0.66871567    -0.53100
C137        C  0.73320509  0.21394900  0.64256253     0.11000
H138        H  0.69642056  0.21379441  0.73555220     0.15500
H139        H  0.67557625  0.21743563  0.62354844     0.01200
H140        H  0.70828037  0.12044150  0.67624501     0.15800
H141        H  0.78200582  0.20339404  0.67185319     0.15600
C142        C  0.44715437  0.86825290  0.46854479     0.30900
C143        C  0.50691169  0.87709569  0.42535055     0.30900
C144        C  0.44553775  0.84953829  0.43139109    -0.05300
C145        C  0.45547519  0.90849839  0.45886715    -0.06100
C146        C  0.48426048  0.85608043  0.48295943    -0.06000
C147        C  0.47598697  0.85258405  0.40995423    -0.05300
C148        C  0.48622150  0.91214215  0.43686816    -0.06100
C149        C  0.51415663  0.85910148  0.46057906    -0.06000
C150        C  0.46839170  0.83299476  0.37855579    -0.31400
N151        N  0.43372444  0.82003546  0.37996819     0.15100
C152        C  0.41931894  0.83101169  0.41178493    -0.31400
H153        H  0.39156708  0.82590109  0.42015134     0.17100
C154        C  0.48939391  0.94807404  0.42876496    -0.30400
N155        N  0.46146640  0.96696045  0.44421874     0.13900
C156        C  0.44079747  0.94363978  0.46298219    -0.30300
C157        C  0.54135816  0.83801993  0.47416778    -0.30600
N158        N  0.53031791  0.82561698  0.50570362     0.14400
H159        H  0.56691091  0.83080076  0.46138057     0.17000
C160        C  0.49544435  0.83681434  0.51144001    -0.30600
H161        H  0.47844400  0.82913814  0.53327739     0.17000
H162        H  0.41725999  0.95214116  0.47811924     0.17000
H163        H  0.48598567  0.82971863  0.35568643     0.17100
H164        H  0.51070800  0.95977605  0.41297998     0.17000
C165        C  0.22997565  0.73242213  0.13704439     0.87400
C166        C  0.20366878  0.70967539  0.15838167    -0.52900
C167        C  0.22003644  0.68252609  0.17541904     0.10300
C168        C  0.26164232  0.68009643  0.16958338     0.21200
C169        C  0.25926018  0.74492334  0.16448665    -0.53600
C170        C  0.27702955  0.71791956  0.18109718     0.10400
C171        C  0.25019087  0.70509918  0.11229418    -0.53100
C172        C  0.26627685  0.67739544  0.12909404     0.11000
H173        H  0.17488544  0.71602453  0.16164128     0.15500
H174        H  0.27423784  0.65745341  0.18270473     0.01200
H175        H  0.26512916  0.77314342  0.17164433     0.15800
H176        H  0.25249446  0.70803268  0.08393511     0.15600
C177        C  0.75064392  0.72366651  0.71572117     0.87400
C178        C  0.77537069  0.70019646  0.69114467    -0.52900
C179        C  0.75733652  0.67441983  0.67050668     0.10300
C180        C  0.71563291  0.67370708  0.67696451     0.21200
C181        C  0.72158845  0.73851429  0.69040027    -0.53600
C182        C  0.70347094  0.71247495  0.67025114     0.10400
C183        C  0.72911632  0.69667998  0.73713772    -0.53100
C184        C  0.71044400  0.67075683  0.71734797     0.11000
H185        H  0.80464376  0.70445353  0.68930885     0.15500
H186        H  0.70099562  0.65261441  0.66051020     0.01200
H187        H  0.71495300  0.76670074  0.68768461     0.15800
H188        H  0.72663142  0.69952011  0.76579632     0.15600
C189        C  0.52299937  0.45759736  0.06133381     0.30900
C190        C  0.46902106  0.50937918  0.05808358     0.30900
C191        C  0.53037745  0.49462561  0.08104191    -0.05300
C192        C  0.51376049  0.47017570  0.02294726    -0.06100
C193        C  0.48449939  0.44748093  0.07494571    -0.06000
C194        C  0.50348229  0.52072477  0.07912774    -0.05300
C195        C  0.48632903  0.49719162  0.02228341    -0.06100
C196        C  0.45790692  0.47375634  0.07385237    -0.06000
C197        C  0.51722084  0.55237429  0.09517840    -0.31400
N198        N  0.55049232  0.54563023  0.10871358     0.15100
C199        C  0.55931254  0.51065905  0.09950302    -0.31400
H200        H  0.58511188  0.49804358  0.10523254     0.17100
C201        C  0.48313508  0.50813997  0.98819945    -0.30400
N202        N  0.50560681  0.48774721  0.96715671     0.13900
C203        C  0.52409881  0.46437165  0.98737423    -0.30300
C204        C  0.42724304  0.46117423  0.09077256    -0.30600
N205        N  0.43436132  0.42765094  0.10232065     0.14400
H206        H  0.40168383  0.47543951  0.09396082     0.17000
C207        C  0.46911591  0.41898901  0.09233659    -0.30600
H208        H  0.48274068  0.39405732  0.09835185     0.17000
H209        H  0.54274306  0.44452826  0.97622284     0.17000
H210        H  0.50477109  0.57895206  0.09577180     0.17100
H211        H  0.46588998  0.52941199  0.97909097     0.17000
C212        C  0.51730909  0.51698843  0.83492210     0.30900
C213        C  0.46118936  0.46698403  0.84154822     0.30900
C214        C  0.52156768  0.47999238  0.81427245    -0.05300
C215        C  0.51012733  0.50407072  0.87353163    -0.06100
C216        C  0.47839627  0.52891582  0.82408910    -0.06000
C217        C  0.49324205  0.45515909  0.81697832    -0.05300
C218        C  0.48142425  0.47855791  0.87584902    -0.06100
C219        C  0.45049116  0.50334033  0.82615319    -0.06000
C220        C  0.50312052  0.42462748  0.79651157    -0.31400
N221        N  0.53696968  0.42949603  0.78262275     0.15100
C222        C  0.54832284  0.46350854  0.79311942    -0.31400
H223        H  0.57391649  0.47571905  0.78573242     0.17100
C224        C  0.47849029  0.46852888  0.91033026    -0.30400
N225        N  0.50419657  0.48661890  0.92976475     0.13900
C226        C  0.52292099  0.50885106  0.90842568    -0.30300
C227        C  0.42203386  0.51533242  0.80561906    -0.30600
N228        N  0.43042821  0.54860248  0.79382592     0.14400
H229        H  0.39763837  0.50024017  0.79874261     0.17000
C230        C  0.46466780  0.55708544  0.80527668    -0.30600
H231        H  0.47944880  0.58122933  0.79843629     0.17000
H232        H  0.54309657  0.52743028  0.91879673     0.17000
H233        H  0.48712137  0.40012971  0.79229697     0.17100
H234        H  0.45856255  0.45008808  0.92075642     0.17000
C235        C  0.06719923  0.91414160  0.02378393     0.43300
N236        N  0.02871561  0.92397362  0.98252526     0.02200
C237        C  0.01888441  0.07850302  0.88574813    -0.05700
H238        H  0.00727018  0.10167651  0.01894371     0.07700
C239        C  0.89115896  0.03029719  0.01692506    -0.06000
Co240      Co  0.04771604  0.99045918  0.94376618     0.74200
N241        N  0.01849483  0.05445001  0.98514420    -0.25200
Co242      Co  0.97605616  0.05152400  0.94862576     0.74100
C243        C  0.90299062  0.06557276  0.03287334     0.43400
N244        N  0.92156973  0.94191934  0.98859132     0.01800
N245        N  0.93807852  0.04987014  0.98913346     0.01900
N246        N  0.06709162  0.04038773  0.88379421    -0.46000
H247        H  0.10048817  0.96508599  0.01115617     0.07700
N248        N  0.04591484  0.03137538  0.98324597     0.02200
N249        N  0.93377566  0.04679892  0.91170649     0.02000
C250        C  0.89564894  0.05624721  0.86999749     0.43600
N251        N  0.94842673  0.91819082  0.98646906    -0.24600
C252        C  0.07020717  0.94359091  0.87671291    -0.05600
N253        N  0.03704549  0.90093718  0.00705106    -0.45800
N254        N  0.92571970  0.06964022  0.88682690    -0.46000
C255        C  0.05929705  0.90843163  0.86048597     0.43300
N256        N  0.04208474  0.03016364  0.90665571     0.02200
N257        N  0.94440878  0.91559554  0.90929788    -0.24700
N258        N  0.05180895  0.95138480  0.98162684    -0.25200
N259        N  0.91687590  0.93856520  0.91123191     0.01800
H260        H  0.95494098  0.86718925  0.87667419     0.07700
H261        H  0.86269821  0.00484592  0.88228642     0.02000
N262        N  0.01406376  0.05249363  0.90856553    -0.25200
N263        N  0.91453856  0.02283621  0.99014848    -0.24800
N264        N  0.02499230  0.92122211  0.90532183     0.02200
C265        C  0.05932958  0.06793131  0.02703819     0.43600
C266        C  0.94565859  0.89614595  0.01355538    -0.06100
N267        N  0.91068140  0.01934056  0.91254728    -0.24800
H268        H  0.86740520  0.01422517  0.02299927     0.07800
N269        N  0.07108531  0.03855685  0.00765462    -0.46000
H270        H  0.96419841  0.87433517  0.01870020     0.07700
C271        C  0.90326911  0.90090603  0.86787355     0.43400
C272        C  0.07692286  0.94768890  0.00679981    -0.05600
Co273      Co  0.98665064  0.91884108  0.94586129     0.73800
N274        N  0.90014779  0.93742959  0.01617825    -0.45800
C275        C  0.05433030  0.07091163  0.86981070     0.43700
N276        N  0.03122508  0.89604205  0.87976419    -0.45800
Co277      Co  0.91498061  0.98052473  0.95071605     0.73900
C278        C  0.88568790  0.02285787  0.88720649    -0.06100
C279        C  0.02445328  0.07861030  0.01206868    -0.05600
N280        N  0.04762081  0.94906880  0.90427586    -0.25200
N281        N  0.93209142  0.07592880  0.01387253    -0.45900
H282        H  0.00140694  0.10180956  0.88357005     0.07700
C283        C  0.93834177  0.89087544  0.88272158    -0.06100
Cl284      Cl  0.98131360  0.98530596  0.94715556    -0.49100
C285        C  0.91353361  0.90911361  0.03331936     0.43500
H286        H  0.09303540  0.96085586  0.87050664     0.07700
N287        N  0.89142356  0.93040400  0.88728685    -0.45800
C288        C  0.86927902  0.83157331  0.79758364    -0.13500
C289        C  0.83214032  0.82952255  0.80617936     0.16900
C290        C  0.81840635  0.85157707  0.83473833     0.03200
C291        C  0.84197922  0.87505946  0.85406033    -0.12000
C292        C  0.87924578  0.87690811  0.84563984    -0.03100
C293        C  0.89282937  0.85504876  0.81684727     0.02400
C294        C  0.80906015  0.80341936  0.78513765     0.09300
N295        N  0.78104007  0.84967369  0.84537169     0.65600
H296        H  0.83114274  0.89133528  0.87631930     0.18500
N297        N  0.92992929  0.85764280  0.80552790     0.76100
H298        H  0.88000601  0.81501686  0.77544691     0.10100
C299        C  0.78493812  0.81491161  0.75921102     0.03700
C300        C  0.76668097  0.78932242  0.73707187    -0.05000
C301        C  0.77179017  0.75158378  0.73970242    -0.23400
C302        C  0.79695489  0.74036580  0.76561244     0.13000
C303        C  0.81489257  0.76619739  0.78796076    -0.12500
N304        N  0.78027724  0.85257163  0.75328781     0.64700
H305        H  0.74949600  0.80019831  0.71733092     0.12500
N306        N  0.80535265  0.70291529  0.76940262     0.61300
H307        H  0.83428208  0.75710288  0.80718977     0.08700
O308        O  0.93779652  0.87889916  0.78147359    -0.40200
O309        O  0.95167996  0.83233551  0.81179910    -0.39300
O310        O  0.77270624  0.83071883  0.87110077    -0.39300
O311        O  0.75963579  0.87452830  0.83701385    -0.37000
O312        O  0.79235909  0.68714048  0.79552972    -0.37900
O313        O  0.83342554  0.68987685  0.75418177    -0.34100
O314        O  0.79963253  0.86677156  0.72999212    -0.35500
O315        O  0.75085904  0.86782104  0.76287494    -0.39800
C316        C  0.60150565  0.58322680  0.82458276    -0.13500
C317        C  0.59856414  0.59008667  0.78867383     0.16900
C318        C  0.56970217  0.57454527  0.76915546     0.03200
C319        C  0.54554133  0.55084306  0.78509002    -0.12000
C320        C  0.54707247  0.54377256  0.82174501    -0.03100
C321        C  0.57617556  0.56079168  0.84137531     0.02400
C322        C  0.62723374  0.61097821  0.77073113     0.09300
N323        N  0.56410571  0.58358771  0.73321057     0.65600
H324        H  0.52479298  0.53796890  0.76834674     0.18500
N325        N  0.58210435  0.55540319  0.87780386     0.76100
H326        H  0.62411196  0.59496591  0.83970821     0.10100
C327        C  0.62951112  0.64900970  0.77500118     0.03700
C328        C  0.65651785  0.66766699  0.75699010    -0.05000
C329        C  0.68123018  0.64922786  0.73397559    -0.23400
C330        C  0.67785099  0.61129256  0.72840607     0.13000
C331        C  0.65131754  0.59247567  0.74718934    -0.12500
N332        N  0.60367924  0.66924082  0.79627413     0.64700
H333        H  0.65784989  0.69698711  0.76064901     0.12500
N334        N  0.70120056  0.59138780  0.70421606     0.61300
H335        H  0.64925461  0.56322903  0.74316826     0.08700
O336        O  0.57522078  0.58139549  0.89981890    -0.40200
O337        O  0.60523847  0.53198295  0.88597261    -0.39300
O338        O  0.57817155  0.56415889  0.70838463    -0.39300
O339        O  0.55182458  0.61452150  0.72685429    -0.37000
O340        O  0.72859296  0.57532192  0.71602518    -0.37900
O341        O  0.68934574  0.58201983  0.67377827    -0.34100
O342        O  0.61219834  0.67983667  0.82743580    -0.35500
O343        O  0.57717940  0.68397651  0.78139035    -0.39800
C344        C  0.16355788  0.77999092  0.07555379    -0.13500
C345        C  0.16925361  0.81670638  0.08513365     0.16900
C346        C  0.19632480  0.82640195  0.11010435     0.03200
C347        C  0.21661677  0.79941420  0.12539520    -0.12000
C348        C  0.21024374  0.76208407  0.11733089    -0.03100
C349        C  0.18353070  0.75279453  0.09117525     0.02400
C350        C  0.14421453  0.84376910  0.07113631     0.09300
N351        N  0.20174779  0.86330098  0.12246021     0.65600
H352        H  0.23658792  0.80917710  0.14488758     0.18500
N353        N  0.17583355  0.71586123  0.08030604     0.76100
H354        H  0.14268128  0.77228435  0.05624626     0.10100
C355        C  0.15585892  0.86977417  0.04745360     0.03700
C356        C  0.13045754  0.89328829  0.03349647    -0.05000
C357        C  0.09322703  0.89090842  0.04194051    -0.23400
C358        C  0.08165439  0.86492044  0.06577408     0.13000
C359        C  0.10719326  0.84185498  0.08029001    -0.12500
N360        N  0.19267599  0.87096997  0.03506727     0.64700
H361        H  0.13988639  0.91230075  0.01451462     0.12500
N362        N  0.04417788  0.86128205  0.07540840     0.61300
H363        H  0.09797015  0.82183699  0.09840527     0.08700
O364        O  0.14803560  0.70068525  0.09275221    -0.40200
O365        O  0.18941523  0.70299526  0.05164367    -0.39300
O366        O  0.18468220  0.87495370  0.14974465    -0.39300
O367        O  0.23056987  0.87944525  0.11371065    -0.37000
O368        O  0.02600056  0.83515054  0.06159526    -0.37900
O369        O  0.03304588  0.87667869  0.10398922    -0.34100
O370        O  0.20089348  0.85306636  0.00684849    -0.35500
O371        O  0.21261367  0.89746429  0.04513527    -0.39800
C372        C  0.31894551  0.59158940  0.10343907    -0.13500
C373        C  0.34536878  0.60556626  0.08103571     0.16900
C374        C  0.34340737  0.64180048  0.07162692     0.03200
C375        C  0.31622335  0.66421904  0.08632360    -0.12000
C376        C  0.29083444  0.65101859  0.11048971    -0.03100
C377        C  0.29165944  0.61393779  0.11825377     0.02400
C378        C  0.37764303  0.58351981  0.07255837     0.09300
N379        N  0.37002569  0.65675127  0.04880800     0.65600
H380        H  0.31629025  0.69261631  0.08022237     0.18500
N381        N  0.26471008  0.59813563  0.14017778     0.76100
H382        H  0.32037355  0.56349311  0.11049616     0.10100
C383        C  0.40549813  0.58208977  0.09762562     0.03700
C384        C  0.43373130  0.55769030  0.09208433    -0.05000
C385        C  0.43743883  0.53639039  0.06027203    -0.23400
C386        C  0.40737210  0.53562578  0.03639745     0.13000
C387        C  0.37832945  0.55998492  0.04237085    -0.12500
N388        N  0.40459858  0.60402552  0.12991435     0.64700
H389        H  0.45161738  0.55427936  0.11427345     0.12500
N390        N  0.40300379  0.50759528  0.00913033     0.61300
H391        H  0.35520566  0.55903933  0.02452762     0.08700
O392        O  0.23830065  0.58156636  0.12529895    -0.40200
O393        O  0.27330767  0.59026571  0.17118003    -0.39300
O394        O  0.36195089  0.66100177  0.01685327    -0.39300
O395        O  0.39714552  0.67349715  0.06220924    -0.37000
O396        O  0.39059174  0.47722382  0.01753023    -0.37900
O397        O  0.39952097  0.51643110  0.97748321    -0.34100
O398        O  0.39449197  0.58996226  0.15809937    -0.35500
O399        O  0.42258944  0.63330134  0.13189208    -0.39800
C400        C  0.57719717  0.78826271  0.58461090    -0.13500
C401        C  0.60090993  0.76288316  0.56815740     0.16900
C402        C  0.59856752  0.75579097  0.53124211     0.03200
C403        C  0.57413774  0.77565737  0.51132283    -0.12000
C404        C  0.55170401  0.80263075  0.52751885    -0.03100
C405        C  0.55269965  0.80804023  0.56480045     0.02400
C406        C  0.62859561  0.74574908  0.59039292     0.09300
N407        N  0.62040634  0.72837368  0.51360897     0.65600
H408        H  0.57297508  0.77025744  0.48291500     0.18500
N409        N  0.53107116  0.83528040  0.58286050     0.76100
H410        H  0.57864796  0.79372512  0.61303353     0.10100
C411        C  0.66476165  0.75889277  0.59189892     0.03700
C412        C  0.68852039  0.74717427  0.61779549    -0.05000
C413        C  0.67730002  0.72202630  0.64227376    -0.23400
C414        C  0.64142377  0.70800857  0.64022699     0.13000
C415        C  0.61736028  0.72017302  0.61451767    -0.12500
N416        N  0.67725695  0.78583756  0.56879772     0.64700
H417        H  0.71595408  0.75826414  0.61909895     0.12500
N418        N  0.62803788  0.68379564  0.66564813     0.61300
H419        H  0.58934237  0.71063941  0.61421364     0.08700
O420        O  0.54497390  0.86612790  0.59002150    -0.40200
O421        O  0.50302658  0.82582418  0.59958772    -0.39300
O422        O  0.60659088  0.69743217  0.50669977    -0.39300
O423        O  0.64847860  0.73763110  0.49684830    -0.37000
O424        O  0.60921710  0.69638852  0.69141921    -0.37900
O425        O  0.62662137  0.65022089  0.65747632    -0.34100
O426        O  0.67719839  0.81871649  0.57980395    -0.35500
O427        O  0.69744554  0.77629292  0.54290396    -0.39800
C428        C  0.33938689  0.71952698  0.26347509    -0.13500
C429        C  0.35243050  0.75523175  0.26336648     0.16900
C430        C  0.34688749  0.77520631  0.23325841     0.03200
C431        C  0.32522024  0.76080277  0.20563931    -0.12000
C432        C  0.30748608  0.72679314  0.20737238    -0.03100
C433        C  0.31793658  0.70468724  0.23546965     0.02400
C434        C  0.37287776  0.77089493  0.29419424     0.09300
N435        N  0.36369563  0.80992643  0.22989841     0.65600
H436        H  0.32227512  0.77697004  0.18272329     0.18500
N437        N  0.31031231  0.66668860  0.23505681     0.76100
H438        H  0.34615814  0.70292351  0.28537512     0.10100
C439        C  0.35675816  0.79674293  0.31803604     0.03700
C440        C  0.37720954  0.81230955  0.34599402    -0.05000
C441        C  0.41359814  0.80226293  0.35130163    -0.23400
C442        C  0.42932239  0.77522449  0.32821111     0.13000
C443        C  0.40890678  0.75997136  0.29979608    -0.12500
N444        N  0.31930388  0.80672364  0.31497067     0.64700
H445        H  0.36456469  0.83277433  0.36349873     0.12500
N446        N  0.46523142  0.76182436  0.33400159     0.61300
H447        H  0.42119668  0.73947005  0.28203087     0.08700
O448        O  0.33224713  0.64527238  0.21893142    -0.40200
O449        O  0.29030743  0.65457130  0.25900692    -0.39300
O450        O  0.39300237  0.81190336  0.21248128    -0.39300
O451        O  0.34502644  0.83827540  0.23574854    -0.37000
O452        O  0.46908891  0.73417057  0.35197299    -0.37900
O453        O  0.49091222  0.77109427  0.31401199    -0.34100
O454        O  0.29588045  0.79142180  0.33375908    -0.35500
O455        O  0.31156899  0.83678323  0.30240041    -0.39800
C456        C  0.80346751  0.11910857  0.73938786    -0.13500
C457        C  0.80020978  0.13031053  0.77517808     0.16900
C458        C  0.77456010  0.15721138  0.78505136     0.03200
C459        C  0.75234084  0.17191003  0.75936033    -0.12000
C460        C  0.75459465  0.16042703  0.72312203    -0.03100
C461        C  0.78122743  0.13367341  0.71348662     0.02400
C462        C  0.82409750  0.11346287  0.80138949     0.09300
N463        N  0.77140809  0.17115491  0.82091001     0.65600
H464        H  0.73421191  0.19283094  0.76886347     0.18500
N465        N  0.78616931  0.12054540  0.67755407     0.76100
H466        H  0.82337313  0.09860414  0.73145361     0.10100
C467        C  0.81041860  0.08765496  0.82429480     0.03700
C468        C  0.83420205  0.06981175  0.84641206    -0.05000
C469        C  0.87188429  0.07692580  0.84639767    -0.23400
C470        C  0.88561552  0.10315131  0.82368010     0.13000
C471        C  0.86168510  0.12099621  0.80137747    -0.12500
N472        N  0.77268495  0.07780351  0.82428327     0.64700
H473        H  0.82280685  0.05004397  0.86360519     0.12500
N474        N  0.92379243  0.11087930  0.82164424     0.61300
H475        H  0.87258627  0.14041833  0.78348329     0.08700
O476        O  0.81171228  0.13361390  0.65963517    -0.40200
O477        O  0.77352211  0.08968035  0.66812562    -0.39300
O478        O  0.78770655  0.20037484  0.82990570    -0.39300
O479        O  0.74449989  0.16148652  0.83912866    -0.37000
O480        O  0.94228981  0.09634602  0.79656266    -0.37900
O481        O  0.93639974  0.13849367  0.83858416    -0.34100
O482        O  0.76220115  0.05137993  0.80429670    -0.35500
O483        O  0.75313128  0.08776589  0.85050769    -0.39800
C484        C  0.60682538  0.27914040  0.72773474    -0.13500
C485        C  0.60908680  0.31019249  0.70800622     0.16900
C486        C  0.63181688  0.30962098  0.67784500     0.03200
C487        C  0.65366958  0.27921990  0.66938890    -0.12000
C488        C  0.65304436  0.24873944  0.69021716    -0.03100
C489        C  0.62809102  0.24839795  0.71906354     0.02400
C490        C  0.59097257  0.34386837  0.72221706     0.09300
N491        N  0.63276331  0.33947155  0.65524822     0.65600
H492        H  0.67211955  0.28005451  0.64698671     0.18500
N493        N  0.62289865  0.21702357  0.73933021     0.76100
H494        H  0.58897887  0.27907679  0.75066085     0.10100
C495        C  0.55301395  0.34882866  0.71977896     0.03700
C496        C  0.53635684  0.37832950  0.73812388    -0.05000
C497        C  0.55639587  0.40245373  0.76070844    -0.23400
C498        C  0.59464174  0.39740393  0.76307135     0.13000
C499        C  0.61147007  0.36872207  0.74336947    -0.12500
N500        N  0.53059477  0.32304875  0.70047608     0.64700
H501        H  0.50714652  0.38158616  0.73560860     0.12500
N502        N  0.61638132  0.41854848  0.78778188     0.61300
H503        H  0.64050924  0.36440157  0.74644962     0.08700
O504        O  0.63766085  0.21630658  0.76940793    -0.40200
O505        O  0.59490280  0.19767668  0.73337934    -0.39300
O506        O  0.65996560  0.36057309  0.65637220    -0.39300
O507        O  0.61230369  0.33863096  0.62841103    -0.37000
O508        O  0.63772293  0.44227626  0.77640673    -0.37900
O509        O  0.62183007  0.40680918  0.81811288    -0.34100
O510        O  0.51367679  0.29938223  0.71716939    -0.35500
O511        O  0.52015096  0.32994497  0.66976148    -0.39800
C512        C  0.87551871  0.84428377  0.09971707    -0.13500
C513        C  0.84902170  0.86647689  0.11637952     0.16900
C514        C  0.84684014  0.90319270  0.10831666     0.03200
C515        C  0.86992488  0.91665073  0.08264683    -0.12000
C516        C  0.89483217  0.89398208  0.06401014    -0.03100
C517        C  0.89830702  0.85752102  0.07350431     0.02400
C518        C  0.82278175  0.85006456  0.14055591     0.09300
N519        N  0.81950493  0.92650614  0.12381052     0.65600
H520        H  0.86706156  0.94479948  0.07615941     0.18500
N521        N  0.92275259  0.83274973  0.05557175     0.76100
H522        H  0.87750406  0.81603001  0.10611820     0.10100
C523        C  0.79677269  0.82489010  0.12744377     0.03700
C524        C  0.77342384  0.80808656  0.15073999    -0.05000
C525        C  0.77621176  0.81410861  0.18786544    -0.23400
C526        C  0.80183148  0.84077447  0.20069940     0.13000
C527        C  0.82464400  0.85835215  0.17699065    -0.12500
N528        N  0.79365151  0.81598859  0.09030397     0.64700
H529        H  0.75283961  0.79067494  0.13847525     0.12500
N530        N  0.80541065  0.85044778  0.23762918     0.61300
H531        H  0.84453894  0.87804670  0.18720165     0.08700
O532        O  0.91088614  0.81271621  0.03005782    -0.40200
O533        O  0.95114544  0.82330408  0.07143809    -0.39300
O534        O  0.82886615  0.95121239  0.14631771    -0.39300
O535        O  0.78931797  0.92902350  0.10815679    -0.37000
O536        O  0.83157339  0.83740536  0.25446149    -0.37900
O537        O  0.79093667  0.87953674  0.24964390    -0.34100
O538        O  0.80762880  0.78689392  0.07765718    -0.35500
O539        O  0.76979260  0.83168377  0.07263052    -0.39800
C540        C  0.58198870  0.62394167  0.16869034    -0.13500
C541        C  0.61759886  0.62882559  0.15634558     0.16900
C542        C  0.63155361  0.60486845  0.12945706     0.03200
C543        C  0.60948131  0.57693163  0.11477862    -0.12000
C544        C  0.57351416  0.57242559  0.12651020    -0.03100
C545        C  0.55993634  0.59591645  0.15419632     0.02400
C546        C  0.64012929  0.65824965  0.17290215     0.09300
N547        N  0.66790032  0.60884586  0.11647724     0.65600
H548        H  0.62011162  0.55923791  0.09346374     0.18500
N549        N  0.52446669  0.59074604  0.16895224     0.76100
H550        H  0.57143420  0.64172928  0.18999845     0.10100
C551        C  0.63737843  0.69413728  0.16220804     0.03700
C552        C  0.65894445  0.72136913  0.17854738    -0.05000
C553        C  0.68338261  0.71356898  0.20559055    -0.23400
C554        C  0.68543227  0.67783656  0.21705070     0.13000
C555        C  0.66375811  0.65047377  0.20061851    -0.12500
N556        N  0.61363177  0.70321390  0.13411625     0.64700
H557        H  0.65715231  0.74875937  0.16954899     0.12500
N558        N  0.71098909  0.66833993  0.24347377     0.61300
H559        H  0.66573861  0.62292995  0.20915146     0.08700
O560        O  0.49964382  0.61327200  0.16309450    -0.40200
O561        O  0.52105252  0.57062514  0.19481013    -0.39300
O562        O  0.69241665  0.58773734  0.12644087    -0.39300
O563        O  0.67334423  0.62685459  0.08942650    -0.37000
O564        O  0.74056412  0.65336422  0.23391518    -0.37900
O565        O  0.70027750  0.66611765  0.27505620    -0.34100
O566        O  0.58456924  0.72026104  0.14145672    -0.35500
O567        O  0.62598838  0.70290677  0.10290159    -0.39800
C568        C  0.61357789  0.81916155  0.30624527    -0.13500
C569        C  0.62225975  0.85234982  0.32420096     0.16900
C570        C  0.65728557  0.86745353  0.31922340     0.03200
C571        C  0.68253846  0.84932638  0.29681996    -0.12000
C572        C  0.67372632  0.81631068  0.27871831    -0.03100
C573        C  0.63855926  0.80139031  0.28327358     0.02400
C574        C  0.59488919  0.86901739  0.34931292     0.09300
N575        N  0.66750756  0.90163857  0.33577397     0.65600
H576        H  0.70941503  0.86115090  0.29373497     0.18500
N577        N  0.62682387  0.76948402  0.26335859     0.76100
H578        H  0.58714719  0.80673333  0.31018426     0.10100
C579        C  0.55886746  0.87610905  0.33853043     0.03700
C580        C  0.53208977  0.88473954  0.36390227    -0.05000
C581        C  0.53929008  0.88279322  0.40018989    -0.23400
C582        C  0.57643779  0.88332764  0.41083409     0.13000
C583        C  0.60369285  0.87484447  0.38534164    -0.12500
N584        N  0.54829464  0.87262339  0.30214389     0.64700
H585        H  0.50462858  0.88987688  0.35498309     0.12500
N586        N  0.58704959  0.89470820  0.44632496     0.61300
H587        H  0.63167264  0.87188663  0.39378046     0.08700
O588        O  0.60953987  0.77304452  0.23491394    -0.40200
O589        O  0.62426876  0.73991406  0.27861790    -0.39300
O590        O  0.68921181  0.90217014  0.36166325    -0.39300
O591        O  0.66427635  0.92982182  0.31846137    -0.37000
O592        O  0.56912692  0.91892570  0.46352017    -0.37900
O593        O  0.61626863  0.88323988  0.45935223    -0.34100
O594        O  0.53100953  0.84456556  0.29128106    -0.35500
O595        O  0.54607258  0.90090037  0.28484323    -0.39800
C596        C  0.86890189  0.58982230  0.55152045    -0.13500
C597        C  0.83601066  0.58124743  0.56851330     0.16900
C598        C  0.81808082  0.54886365  0.55830890     0.03200
C599        C  0.83295190  0.52564953  0.53206169    -0.12000
C600        C  0.86681100  0.53239302  0.51548788    -0.03100
C601        C  0.88395449  0.56633331  0.52449752     0.02400
C602        C  0.81806744  0.60738649  0.59416713     0.09300
N603        N  0.78330507  0.54004227  0.57285939     0.65600
H604        H  0.81593749  0.50309256  0.52290529     0.18500
N605        N  0.91333137  0.57980381  0.50390101     0.76100
H606        H  0.88176523  0.61586283  0.55775140     0.10100
C607        C  0.82743387  0.60919131  0.63029132     0.03700
C608        C  0.80708375  0.63087417  0.65458268    -0.05000
C609        C  0.77698723  0.65083969  0.64364397    -0.23400
C610        C  0.76790337  0.64952364  0.60725582     0.13000
C611        C  0.78840487  0.62782741  0.58296387    -0.12500
N612        N  0.85691391  0.58830985  0.64291980     0.64700
H613        H  0.81460403  0.63179606  0.68233745     0.12500
N614        N  0.73925808  0.67126951  0.59414499     0.61300
H615        H  0.78090824  0.62661061  0.55520478     0.08700
O616        O  0.94376915  0.58589320  0.51860887    -0.40200
O617        O  0.90594198  0.59579011  0.47605313    -0.39300
O618        O  0.75506613  0.54300587  0.55420118    -0.39300
O619        O  0.78191188  0.52132305  0.59986694    -0.37000
O620        O  0.70858133  0.65682428  0.58758278    -0.37900
O621        O  0.74744218  0.70050086  0.57999118    -0.34100
O622        O  0.88741008  0.60345988  0.64861996    -0.35500
O623        O  0.85021574  0.55825604  0.65615828    -0.39800
C624        C  0.78868182  0.36031074  0.56492163    -0.13500
C625        C  0.80155877  0.32475569  0.55884622     0.16900
C626        C  0.82818173  0.31824321  0.53209013     0.03200
C627        C  0.84224353  0.34721703  0.51334685    -0.12000
C628        C  0.83021175  0.38298619  0.52027998    -0.03100
C629        C  0.80239763  0.38919297  0.54596710     0.02400
C630        C  0.78566942  0.29523466  0.58004472     0.09300
N631        N  0.84196223  0.28260897  0.52400759     0.65600
H632        H  0.86321390  0.34178379  0.49354989     0.18500
N633        N  0.78612909  0.42410854  0.55188977     0.76100
H634        H  0.76707793  0.36564094  0.58409826     0.10100
C635        C  0.78655848  0.29735819  0.61749882     0.03700
C636        C  0.76907161  0.27081778  0.63680760    -0.05000
C637        C  0.74995134  0.24180348  0.61989767    -0.23400
C638        C  0.74855866  0.23980742  0.58246497     0.13000
C639        C  0.76653278  0.26623801  0.56298492    -0.12500
N640        N  0.80536611  0.32618227  0.63653728     0.64700
H641        H  0.77030330  0.27306273  0.66549438     0.12500
N642        N  0.72994223  0.21077745  0.56364322     0.61300
H643        H  0.76477463  0.26452711  0.53434175     0.08700
O644        O  0.79333200  0.44233063  0.58017953    -0.40200
O645        O  0.75747255  0.43123010  0.53518565    -0.39300
O646        O  0.83000060  0.26486318  0.49702888    -0.39300
O647        O  0.87222482  0.27383729  0.53685566    -0.37000
O648        O  0.69755514  0.21558399  0.55369728    -0.37900
O649        O  0.74846588  0.18564026  0.54861000    -0.34100
O650        O  0.78711812  0.35166348  0.65134264    -0.35500
O651        O  0.83773454  0.32117114  0.64642608    -0.39800
C652        C  0.79269411  0.61193228  0.34083148    -0.13500
C653        C  0.80272062  0.64609863  0.35557878     0.16900
C654        C  0.81886980  0.64866088  0.38931240     0.03200
C655        C  0.82668712  0.61702430  0.40663585    -0.12000
C656        C  0.81725691  0.58236867  0.39180804    -0.03100
C657        C  0.79925087  0.58025958  0.35863489     0.02400
C658        C  0.79437283  0.67832877  0.33543257     0.09300
N659        N  0.82770248  0.68301549  0.40640476     0.65600
H660        H  0.84079275  0.61998969  0.43167742     0.18500
N661        N  0.78586480  0.54669425  0.34313186     0.76100
H662        H  0.77883998  0.60989987  0.31549313     0.10100
C663        C  0.81045403  0.68290638  0.30204899     0.03700
C664        C  0.79728124  0.70945949  0.28044878    -0.05000
C665        C  0.76817589  0.73198593  0.29144134    -0.23400
C666        C  0.75328054  0.72864281  0.32568108     0.13000
C667        C  0.76648000  0.70184851  0.34731937    -0.12500
N668        N  0.83965985  0.66019682  0.28929358     0.64700
H669        H  0.80891653  0.71125840  0.25420294     0.12500
N670        N  0.72519508  0.75237124  0.33914971     0.61300
H671        H  0.75395678  0.69851131  0.37297061     0.08700
O672        O  0.75322539  0.53772389  0.34903720    -0.40200
O673        O  0.80186815  0.53277575  0.31614825    -0.39300
O674        O  0.80668626  0.69601109  0.43029892    -0.39300
O675        O  0.86012630  0.69451868  0.40510077    -0.37000
O676        O  0.73410882  0.78064902  0.35732243    -0.37900
O677        O  0.69300307  0.74041102  0.34146407    -0.34100
O678        O  0.83270726  0.63345405  0.26820388    -0.35500
O679        O  0.87195240  0.67209322  0.29146166    -0.39800
C680        C  0.18480732  0.16916963  0.80486690    -0.13500
C681        C  0.14710491  0.17266441  0.80142646     0.16900
C682        C  0.13295274  0.20325740  0.78538929     0.03200
C683        C  0.15657613  0.22864614  0.77131266    -0.12000
C684        C  0.19465008  0.22418726  0.77246956    -0.03100
C685        C  0.20861133  0.19448966  0.79096387     0.02400
C686        C  0.12302796  0.14611937  0.81793608     0.09300
N687        N  0.09451483  0.20850876  0.78219402     0.65600
H688        H  0.14427696  0.25119814  0.75894079     0.18500
N689        N  0.24694387  0.18899316  0.79537680     0.76100
H690        H  0.19592691  0.14674771  0.81878760     0.10100
C691        C  0.12463400  0.10850894  0.80891138     0.03700
C692        C  0.10208986  0.08453524  0.82645736    -0.05000
C693        C  0.07793131  0.09735453  0.85290733    -0.23400
C694        C  0.07716780  0.13490509  0.86263805     0.13000
C695        C  0.09966622  0.15873061  0.84510442    -0.12500
N696        N  0.14848469  0.09420074  0.78173361     0.64700
H697        H  0.10312664  0.05576865  0.81903271     0.12500
N698        N  0.05554172  0.14928529  0.89154160     0.61300
H699        H  0.09959518  0.18727550  0.85348037     0.08700
O700        O  0.26153659  0.19939093  0.82437133    -0.40200
O701        O  0.26270365  0.16482452  0.77613004    -0.39300
O702        O  0.07895084  0.23187663  0.80252603    -0.39300
O703        O  0.07873006  0.19746033  0.75402409    -0.37000
O704        O  0.02820275  0.16857490  0.88512097    -0.37900
O705        O  0.06916127  0.15132562  0.92221714    -0.34100
O706        O  0.17717332  0.07810537  0.79045715    -0.35500
O707        O  0.13614894  0.08854449  0.75080126    -0.39800
C708        C  0.36119828  0.34140842  0.78178446    -0.13500
C709        C  0.35128809  0.35749117  0.81472280     0.16900
C710        C  0.31597905  0.35069489  0.82788144     0.03200
C711        C  0.29166522  0.32858412  0.80779266    -0.12000
C712        C  0.30199987  0.31118983  0.77513634    -0.03100
C713        C  0.33770559  0.31788378  0.76247983     0.02400
C714        C  0.37749361  0.38354596  0.83246491     0.09300
N715        N  0.30479119  0.36441555  0.86224486     0.65600
H716        H  0.26446956  0.32489411  0.81829671     0.18500
N717        N  0.35248145  0.29895605  0.73197453     0.76100
H718        H  0.38782690  0.34699464  0.77074112     0.10100
C719        C  0.41441259  0.37432508  0.83774231     0.03700
C720        C  0.44018408  0.40162116  0.84565865    -0.05000
C721        C  0.43068116  0.43847673  0.84604475    -0.23400
C722        C  0.39286664  0.44677543  0.84863773     0.13000
C723        C  0.36685963  0.41959300  0.84009280    -0.12500
N724        N  0.42661325  0.33757449  0.83384430     0.64700
H725        H  0.46829762  0.39387266  0.84944620     0.12500
N726        N  0.38031106  0.48038005  0.86489760     0.61300
H727        H  0.33832095  0.42687557  0.83895579     0.08700
O728        O  0.35402158  0.31514245  0.70335970    -0.40200
O729        O  0.37552673  0.27439831  0.73699732    -0.39300
O730        O  0.28145915  0.38949903  0.86474321    -0.39300
O731        O  0.30970691  0.34501574  0.88837807    -0.37000
O732        O  0.38484287  0.48575036  0.89784336    -0.37900
O733        O  0.35542906  0.49770122  0.85012817    -0.34100
O734        O  0.44457458  0.32757803  0.80653877    -0.35500
O735        O  0.42893599  0.31930499  0.86108225    -0.39800
C736        C  0.81802490  0.20470368  0.10986439    -0.13500
C737        C  0.81361029  0.16781288  0.11609262     0.16900
C738        C  0.79103001  0.15806401  0.14429368     0.03200
C739        C  0.77327194  0.18495515  0.16512613    -0.12000
C740        C  0.77654824  0.22221705  0.15878270    -0.03100
C741        C  0.80016701  0.23177219  0.13073219     0.02400
C742        C  0.83576472  0.14063398  0.09520536     0.09300
N743        N  0.78728748  0.12115342  0.15359132     0.65600
H744        H  0.75755548  0.17534623  0.18752182     0.18500
N745        N  0.80683640  0.26881162  0.12312685     0.76100
H746        H  0.83605762  0.21268286  0.08868883     0.10100
C747        C  0.82000252  0.11325260  0.07261729     0.03700
C748        C  0.84243671  0.08850351  0.05357199    -0.05000
C749        C  0.88061098  0.09126260  0.05519843    -0.23400
C750        C  0.89637643  0.11953903  0.07682944     0.13000
C751        C  0.87391906  0.14336950  0.09698650    -0.12500
N752        N  0.78161656  0.11194294  0.06617490     0.64700
H753        H  0.82971403  0.06805981  0.03604688     0.12500
N754        N  0.93502406  0.12467429  0.07872019     0.61300
H755        H  0.88640378  0.16459442  0.11381632     0.08700
O756        O  0.79182336  0.28142303  0.09638541    -0.40200
O757        O  0.83504765  0.28436518  0.13565819    -0.39300
O758        O  0.80854526  0.10932049  0.17650984    -0.39300
O759        O  0.75701137  0.10538662  0.14835923    -0.37000
O760        O  0.95185183  0.11485240  0.10568343    -0.37900
O761        O  0.94982869  0.14755185  0.05943627    -0.34100
O762        O  0.76910947  0.12935249  0.04101403    -0.35500
O763        O  0.76338463  0.08557752  0.07697283    -0.39800
C764        C  0.60286979  0.38680909  0.06994256    -0.13500
C765        C  0.60054894  0.38132519  0.10641633     0.16900
C766        C  0.57350340  0.39969763  0.12631456     0.03200
C767        C  0.55074516  0.42408193  0.11033535    -0.12000
C768        C  0.55163389  0.42979405  0.07353144    -0.03100
C769        C  0.57880334  0.41058197  0.05326537     0.02400
C770        C  0.62913745  0.36061317  0.12460933     0.09300
N771        N  0.56814193  0.39339472  0.16296020     0.65600
H772        H  0.53147100  0.43878137  0.12742564     0.18500
N773        N  0.58444769  0.41581344  0.01662896     0.76100
H774        H  0.62432053  0.37344444  0.05446253     0.10100
C775        C  0.63222774  0.32258568  0.12050636     0.03700
C776        C  0.66002806  0.30474311  0.13812804    -0.05000
C777        C  0.68467222  0.32387445  0.16079473    -0.23400
C778        C  0.68069370  0.36182944  0.16571859     0.13000
C779        C  0.65343726  0.37975953  0.14738387    -0.12500
N780        N  0.60642936  0.30145245  0.09999222     0.64700
H781        H  0.66182821  0.27545542  0.13463747     0.12500
N782        N  0.70478847  0.38299240  0.18802631     0.61300
H783        H  0.65127318  0.40903109  0.15089500     0.08700
O784        O  0.57601283  0.39029911  0.99460146    -0.40200
O785        O  0.60806034  0.43876152  0.00790864    -0.39300
O786        O  0.58038589  0.41612086  0.18606904    -0.39300
O787        O  0.54348330  0.37148569  0.17152698    -0.37000
O788        O  0.73090195  0.39949405  0.17398466    -0.37900
O789        O  0.69383980  0.39379388  0.21843985    -0.34100
O790        O  0.61603776  0.28738365  0.07030811    -0.35500
O791        O  0.57869533  0.28905150  0.11522865    -0.39800
C792        C  0.82127286  0.33607909  0.30237986    -0.13500
C793        C  0.81835939  0.37378614  0.30091721     0.16900
C794        C  0.79768794  0.38828786  0.27361452     0.03200
C795        C  0.77997609  0.36491649  0.24864782    -0.12000
C796        C  0.78238675  0.32713836  0.25029662    -0.03100
C797        C  0.80365319  0.31272578  0.27743475     0.02400
C798        C  0.83402112  0.39704091  0.33024374     0.09300
N799        N  0.79392351  0.42661580  0.27118053     0.65600
H800        H  0.76447198  0.37637286  0.22779224     0.18500
N801        N  0.80597232  0.27449643  0.28143681     0.76100
H802        H  0.83654634  0.32467081  0.32365326     0.10100
C803        C  0.81394542  0.40376105  0.36138976     0.03700
C804        C  0.82887918  0.42492819  0.38915168    -0.05000
C805        C  0.86491472  0.43883909  0.38840209    -0.23400
C806        C  0.88513550  0.43227643  0.35649100     0.13000
C807        C  0.86950568  0.41123819  0.32802963    -0.12500
N808        N  0.77823419  0.38887620  0.36561988     0.64700
H809        H  0.81142324  0.43088487  0.41188231     0.12500
N810        N  0.91990930  0.44842967  0.35070995     0.61300
H811        H  0.88502369  0.40637337  0.30381274     0.08700
O812        O  0.78616659  0.26034559  0.30439984    -0.40200
O813        O  0.83402011  0.25775576  0.27025619    -0.39300
O814        O  0.81255873  0.44260943  0.24851445    -0.39300
O815        O  0.76636481  0.44228196  0.28485218    -0.37000
O816        O  0.94717158  0.42780533  0.34653259    -0.37900
O817        O  0.92089128  0.47906518  0.33727503    -0.34100
O818        O  0.77434907  0.36146662  0.38399050    -0.35500
O819        O  0.75083266  0.40828948  0.35982147    -0.39800
C820        C  0.60534108  0.11895275  0.60354217    -0.13500
C821        C  0.61808382  0.11048124  0.56911016     0.16900
C822        C  0.65554637  0.11520879  0.56167835     0.03200
C823        C  0.67868581  0.13085283  0.58780923    -0.12000
C824        C  0.66508629  0.14204054  0.62121173    -0.03100
C825        C  0.62838043  0.13475166  0.62948050     0.02400
C826        C  0.59034717  0.10633841  0.54067227     0.09300
N827        N  0.67017215  0.10652610  0.52727225     0.65600
H828        H  0.70705266  0.13580178  0.58145974     0.18500
N829        N  0.61311735  0.14622744  0.66292228     0.76100
H830        H  0.57657101  0.11587240  0.60953423     0.10100
C831        C  0.58263073  0.07339587  0.52165977     0.03700
C832        C  0.55407481  0.07170384  0.49696339    -0.05000
C833        C  0.53105383  0.10154530  0.49237332    -0.23400
C834        C  0.54072928  0.13536260  0.50992174     0.13000
C835        C  0.56956046  0.13699108  0.53405561    -0.12500
N836        N  0.60238017  0.04103608  0.52779639     0.64700
H837        H  0.55080646  0.04697837  0.48087810     0.12500
N838        N  0.52191814  0.16853816  0.50374795     0.61300
H839        H  0.57592211  0.16271287  0.54789903     0.08700
O840        O  0.61202605  0.12412985  0.68734307    -0.40200
O841        O  0.59193493  0.17314638  0.66435501    -0.39300
O842        O  0.67505676  0.13171628  0.50635315    -0.39300
O843        O  0.68780501  0.07738756  0.52228125    -0.37000
O844        O  0.50910456  0.18752243  0.52958266    -0.37900
O845        O  0.52229846  0.18132383  0.47339922    -0.34100
O846        O  0.58784969  0.01773318  0.54677814    -0.35500
O847        O  0.62702359  0.03098319  0.50613028    -0.39800
C848        C  0.28874052  0.18377707  0.62248937    -0.13500
C849        C  0.32686409  0.18576965  0.62289888     0.16900
C850        C  0.34463918  0.20627737  0.65019513     0.03200
C851        C  0.32400665  0.22416324  0.67657471    -0.12000
C852        C  0.28609724  0.22302178  0.67602909    -0.03100
C853        C  0.26814764  0.20228112  0.64875037     0.02400
C854        C  0.34713046  0.17114805  0.59192036     0.09300
N855        N  0.38334622  0.21093350  0.65043462     0.65600
H856        H  0.33787105  0.23899244  0.69810324     0.18500
N857        N  0.22923337  0.20100899  0.64641490     0.76100
H858        H  0.27491441  0.16880732  0.60095618     0.10100
C859        C  0.36675518  0.13848005  0.59227556     0.03700
C860        C  0.38801299  0.12760177  0.56293821    -0.05000
C861        C  0.38927177  0.14841832  0.53292222    -0.23400
C862        C  0.36740186  0.17975197  0.53172453     0.13000
C863        C  0.34686940  0.19102630  0.56137890    -0.12500
N864        N  0.36477934  0.11574427  0.62172073     0.64700
H865        H  0.40383371  0.10289185  0.56357078     0.12500
N866        N  0.36720180  0.20153109  0.50152813     0.61300
H867        H  0.33120417  0.21587710  0.56086744     0.08700
O868        O  0.21262100  0.17249179  0.65438186    -0.40200
O869        O  0.21305065  0.22367939  0.62813617    -0.39300
O870        O  0.39667534  0.23987634  0.63935455    -0.39300
O871        O  0.40227826  0.19224729  0.67051623    -0.37000
O872        O  0.34113746  0.19802738  0.47984611    -0.37900
O873        O  0.38603017  0.23028151  0.50224153    -0.34100
O874        O  0.34279352  0.08928305  0.62045222    -0.35500
O875        O  0.39085606  0.11593129  0.64344713    -0.39800
C876        C  0.62104970  0.24199061  0.27463064    -0.13500
C877        C  0.63367117  0.22083721  0.30204501     0.16900
C878        C  0.67189837  0.21843043  0.30719244     0.03200
C879        C  0.69598421  0.23453164  0.28374459    -0.12000
C880        C  0.68323793  0.25455506  0.25581695    -0.03100
C881        C  0.64537854  0.25945663  0.25220175     0.02400
C882        C  0.60710847  0.19884749  0.32247846     0.09300
N883        N  0.68698698  0.19962901  0.33590775     0.65600
H884        H  0.72498600  0.23037880  0.28673719     0.18500
N885        N  0.63097914  0.28001148  0.22448978     0.76100
H886        H  0.59215740  0.24363195  0.26926795     0.10100
C887        C  0.57378360  0.21319181  0.33616638     0.03700
C888        C  0.54972615  0.19101573  0.35437522    -0.05000
C889        C  0.55823865  0.15483685  0.36016178    -0.23400
C890        C  0.59100079  0.14025972  0.34633281     0.13000
C891        C  0.61441986  0.16187455  0.32684411    -0.12500
N892        N  0.56431570  0.25045596  0.33317154     0.64700
H893        H  0.52479899  0.20254838  0.36536639     0.12500
N894        N  0.60081374  0.10349659  0.35159690     0.61300
H895        H  0.63834159  0.14937388  0.31478100     0.08700
O896        O  0.62040737  0.31206570  0.23173468    -0.40200
O897        O  0.61972589  0.26351452  0.19654286    -0.39300
O898        O  0.70237327  0.16943094  0.32948727    -0.39300
O899        O  0.69440489  0.21740987  0.36439717    -0.37000
O900        O  0.59353726  0.07936353  0.32777515    -0.37900
O901        O  0.62450719  0.09708734  0.37460616    -0.34100
O902        O  0.53861215  0.25830611  0.31277990    -0.35500
O903        O  0.57372698  0.27323837  0.35750089    -0.39800
C904        C  0.10071071  0.83131307  0.80319921    -0.13500
C905        C  0.12409924  0.85058594  0.78142685     0.16900
C906        C  0.12343128  0.88889046  0.78381030     0.03200
C907        C  0.10122898  0.90690679  0.80908963    -0.12000
C908        C  0.07926688  0.88762581  0.83217996    -0.03100
C909        C  0.07846025  0.84931529  0.82848654     0.02400
C910        C  0.14833122  0.82991312  0.75632376     0.09300
N911        N  0.14565411  0.91006648  0.76149195     0.65600
H912        H  0.10153063  0.93631764  0.81077631     0.18500
N913        N  0.05639113  0.82803242  0.85081729     0.76100
H914        H  0.09979793  0.80192831  0.80067914     0.10100
C915        C  0.17188381  0.80296032  0.76805880     0.03700
C916        C  0.19213364  0.78197262  0.74364478    -0.05000
C917        C  0.19030645  0.78656552  0.70691574    -0.23400
C918        C  0.16671458  0.81416575  0.69533992     0.13000
C919        C  0.14606252  0.83514454  0.71998026    -0.12500
N920        N  0.17593500  0.79660811  0.80485924     0.64700
H921        H  0.20978350  0.76152548  0.75513790     0.12500
N922        N  0.16276784  0.82106716  0.65866194     0.61300
H923        H  0.12729160  0.85512254  0.71041006     0.08700
O924        O  0.07107540  0.81333132  0.87661382    -0.40200
O925        O  0.02625249  0.81586027  0.83923880    -0.39300
O926        O  0.13121845  0.92390024  0.73507874    -0.39300
O927        O  0.17512411  0.92335230  0.77361074    -0.37000
O928        O  0.17897295  0.84815776  0.64674473    -0.37900
O929        O  0.13537326  0.80815093  0.64217325    -0.34100
O930        O  0.16124157  0.76874792  0.81690000    -0.35500
O931        O  0.20231381  0.81136518  0.82153138    -0.39800
C932        C  0.30016283  0.63740493  0.72252671    -0.13500
C933        C  0.33742581  0.64384645  0.71696804     0.16900
C934        C  0.34765656  0.67084507  0.69345596     0.03200
C935        C  0.32067626  0.69125965  0.67701945    -0.12000
C936        C  0.28346594  0.68556509  0.68368400    -0.03100
C937        C  0.27333212  0.65789411  0.70643354     0.02400
C938        C  0.36414448  0.62042353  0.73495974     0.09300
N939        N  0.38509484  0.67772137  0.68552200     0.65600
H940        H  0.32892710  0.71261937  0.65995631     0.18500
N941        N  0.23586660  0.65009724  0.71358009     0.76100
H942        H  0.29176035  0.61643756  0.73997359     0.10100
C943        C  0.38695802  0.63375077  0.76278891     0.03700
C944        C  0.40851379  0.60965854  0.78128042    -0.05000
C945        C  0.40762076  0.57197375  0.77344432    -0.23400
C946        C  0.38438102  0.55860277  0.74580477     0.13000
C947        C  0.36325726  0.58281580  0.72694433    -0.12500
N948        N  0.38697569  0.67121552  0.77439187     0.64700
H949        H  0.42529463  0.62048194  0.80289781     0.12500
N950        N  0.38215311  0.52079529  0.73581970     0.61300
H951        H  0.34544982  0.57202905  0.70607716     0.08700
O952        O  0.22199600  0.66198025  0.74246956    -0.40200
O953        O  0.22085080  0.62352691  0.69697725    -0.39300
O954        O  0.39940106  0.66112162  0.65899770    -0.39300
O955        O  0.39956241  0.70690755  0.69750644    -0.37000
O956        O  0.35451065  0.50304816  0.74512041    -0.37900
O957        O  0.40109816  0.50851343  0.71001673    -0.34100
O958        O  0.36665794  0.68123311  0.80004803    -0.35500
O959        O  0.41436294  0.69046784  0.76745024    -0.39800
C960        C  0.37905500  0.80645109  0.51645604    -0.13500
C961        C  0.35593777  0.83135623  0.53396625     0.16900
C962        C  0.36281968  0.86879290  0.53080562     0.03200
C963        C  0.39216337  0.88043549  0.50997857    -0.12000
C964        C  0.41515157  0.85548432  0.49160519    -0.03100
C965        C  0.40810026  0.81751665  0.49555786     0.02400
C966        C  0.32827370  0.81690751  0.55870805     0.09300
N967        N  0.34013162  0.89561676  0.54820593     0.65600
H968        H  0.39688080  0.90875084  0.50907263     0.18500
N969        N  0.42976728  0.78903752  0.47892024     0.76100
H970        H  0.37533980  0.77772717  0.51990539     0.10100
C971        C  0.30334343  0.78905045  0.54784208     0.03700
C972        C  0.28200019  0.77200167  0.57302404    -0.05000
C973        C  0.28490060  0.78174627  0.60916928    -0.23400
C974        C  0.31040458  0.80887189  0.62018294     0.13000
C975        C  0.33140122  0.82635463  0.59499143    -0.12500
N976        N  0.29953379  0.77731543  0.51140290     0.64700
H977        H  0.26285501  0.75106923  0.56416155     0.12500
N978        N  0.31791132  0.81656520  0.65687908     0.61300
H979        H  0.35189454  0.84590339  0.60407536     0.08700
O980        O  0.41594750  0.77043449  0.45335774    -0.40200
O981        O  0.45314474  0.77372867  0.49746950    -0.39300
O982        O  0.35214760  0.91326543  0.57521434    -0.39300
O983        O  0.31387159  0.90840167  0.53134075    -0.37000
O984        O  0.34217276  0.79843408  0.67162218    -0.37900
O985        O  0.30804315  0.84656582  0.67127699    -0.34100
O986        O  0.31277406  0.74708792  0.50091791    -0.35500
O987        O  0.27477788  0.79111606  0.49331214    -0.39800
C988        C  0.18444571  0.36918485  0.65644731    -0.13500
C989        C  0.20108937  0.36290221  0.62342376     0.16900
C990        C  0.22792130  0.33598795  0.61901086     0.03200
C991        C  0.23721111  0.31507605  0.64760132    -0.12000
C992        C  0.22014087  0.32074736  0.68092212    -0.03100
C993        C  0.19368124  0.34851580  0.68516696     0.02400
C994        C  0.18950214  0.38428711  0.59358905     0.09300
N995        N  0.24540203  0.32940674  0.58542872     0.65600
H996        H  0.25727986  0.29379080  0.64342956     0.18500
N997        N  0.17655184  0.35698210  0.71852239     0.76100
H998        H  0.16402492  0.39026830  0.65992004     0.10100
C999        C  0.16007170  0.37274783  0.57200297     0.03700
C1000       C  0.14879609  0.39402510  0.54466701    -0.05000
C1001       C  0.16661558  0.42669272  0.53800770    -0.23400
C1002       C  0.19664194  0.43797211  0.55920602     0.13000
C1003       C  0.20771308  0.41675613  0.58697368    -0.12500
N1004       N  0.14136532  0.33943349  0.57743636     0.64700
H1005       H  0.12570926  0.38507783  0.52860945     0.12500
N1006       N  0.21726314  0.46966899  0.55181027     0.61300
H1007       H  0.23076382  0.42543846  0.60323439     0.08700
O1008       O  0.14387825  0.34721238  0.72292664    -0.40200
O1009       O  0.18918935  0.38287402  0.73794337    -0.39300
O1010       O  0.27008826  0.35078720  0.57583228    -0.39300
O1011       O  0.23123796  0.30730044  0.56283261    -0.37000
O1012       O  0.21226745  0.49847926  0.57060853    -0.37900
O1013       O  0.24623885  0.46619746  0.53384628    -0.34100
O1014       O  0.11243957  0.34003299  0.59563651    -0.35500
O1015       O  0.14802240  0.31208385  0.55705172    -0.39800
C1016       C  0.17110868  0.57077224  0.28800321    -0.13500
C1017       C  0.15282985  0.60362405  0.28485181     0.16900
C1018       C  0.12402445  0.61305352  0.30816506     0.03200
C1019       C  0.11556716  0.59050601  0.33572620    -0.12000
C1020       C  0.13495723  0.55827022  0.33995337    -0.03100
C1021       C  0.16229274  0.54787447  0.31504912     0.02400
C1022       C  0.16579510  0.62760494  0.25757770     0.09300
N1023       N  0.10288409  0.64499114  0.30399712     0.65600
H1024       H  0.09387772  0.59823789  0.35408909     0.18500
N1025       N  0.18311131  0.51553506  0.31802928     0.76100
H1026       H  0.19308664  0.56330354  0.26982009     0.10100
C1027       C  0.19271061  0.65410324  0.26554439     0.03700
C1028       C  0.20999686  0.67145466  0.23812469    -0.05000
C1029       C  0.20073464  0.66301043  0.20281821    -0.23400
C1030       C  0.17253767  0.63781026  0.19484003     0.13000
C1031       C  0.15569471  0.61985098  0.22229248    -0.12500
N1032       N  0.20336071  0.66313770  0.30124531     0.64700
H1033       H  0.23068692  0.69182767  0.24444008     0.12500
N1034       N  0.16086062  0.62994666  0.15923912     0.61300
H1035       H  0.13517868  0.59927554  0.21605040     0.08700
O1036       O  0.21493261  0.51809530  0.33059937    -0.40200
O1037       O  0.17467899  0.48771049  0.29892653    -0.39300
O1038       O  0.07348259  0.64242441  0.28672761    -0.39300
O1039       O  0.10808348  0.67236033  0.32479134    -0.37000
O1040       O  0.16856001  0.59955525  0.14434439    -0.37900
O1041       O  0.13474205  0.64783601  0.14734499    -0.34100
O1042       O  0.23067956  0.64764556  0.31389267    -0.35500
O1043       O  0.19200863  0.69233752  0.31618788    -0.39800
C1044       C  0.16115523  0.59891009  0.51311939    -0.13500
C1045       C  0.13570639  0.61433662  0.53670414     0.16900
C1046       C  0.09931482  0.60185774  0.53532894     0.03200
C1047       C  0.08942000  0.57299763  0.51139343    -0.12000
C1048       C  0.11520309  0.55653279  0.48811936    -0.03100
C1049       C  0.15171028  0.57040859  0.48925823     0.02400
C1050       C  0.14933386  0.64256273  0.56270911     0.09300
N1051       N  0.07215106  0.61741460  0.55853260     0.65600
H1052       H  0.06233180  0.56281245  0.51277633     0.18500
N1053       N  0.18059504  0.55447443  0.46815074     0.76100
H1054       H  0.18918721  0.60836205  0.51401579     0.10100
C1055       C  0.16771800  0.63266726  0.59349790     0.03700
C1056       C  0.18757815  0.65871464  0.61374824    -0.05000
C1057       C  0.18981128  0.69470362  0.60383727    -0.23400
C1058       C  0.17133102  0.70477680  0.57314336     0.13000
C1059       C  0.15138085  0.67866681  0.55281613    -0.12500
N1060       N  0.16777325  0.59590955  0.60372404     0.64700
H1061       H  0.20142033  0.65079354  0.63738081     0.12500
N1062       N  0.17390303  0.74087346  0.56132450     0.61300
H1063       H  0.13866542  0.68626055  0.52842660     0.08700
O1064       O  0.19186684  0.57088451  0.44169819    -0.40200
O1065       O  0.20187228  0.53255530  0.48217431    -0.39300
O1066       O  0.04947787  0.63926096  0.54644849    -0.39300
O1067       O  0.06464329  0.60206331  0.58675670    -0.37000
O1068       O  0.19698001  0.74769541  0.53769605    -0.37900
O1069       O  0.14755616  0.76232436  0.56696977    -0.34100
O1070       O  0.19466262  0.57595096  0.59542150    -0.35500
O1071       O  0.14628922  0.58659624  0.62781728    -0.39800
C1072       C  0.13951820  0.18841015  0.13689142    -0.13500
C1073       C  0.14043925  0.15042456  0.13493653     0.16900
C1074       C  0.16302765  0.13260728  0.15863806     0.03200
C1075       C  0.18427189  0.15271737  0.18291806    -0.12000
C1076       C  0.18410660  0.19091980  0.18507713    -0.03100
C1077       C  0.16000592  0.20866860  0.16213848     0.02400
C1078       C  0.11912987  0.12975044  0.10729284     0.09300
N1079       N  0.16408557  0.09389304  0.15930988     0.65600
H1080       H  0.20016027  0.13681046  0.20090843     0.18500
N1081       N  0.15545276  0.24718889  0.16408715     0.76100
H1082       H  0.12291445  0.20273265  0.11846905     0.10100
C1083       C  0.08186971  0.13669564  0.10104407     0.03700
C1084       C  0.06319119  0.11614394  0.07485525    -0.05000
C1085       C  0.08051052  0.08810512  0.05484172    -0.23400
C1086       C  0.11761787  0.08078259  0.06148603     0.13000
C1087       C  0.13669308  0.10244141  0.08652924    -0.12500
N1088       N  0.06210417  0.16378873  0.12145510     0.64700
H1089       H  0.03461490  0.12192591  0.07086772     0.12500
N1090       N  0.13635850  0.05104533  0.04398297     0.61300
H1091       H  0.16555545  0.09758374  0.08985153     0.08700
O1092       O  0.16761852  0.26509717  0.13902872    -0.40200
O1093       O  0.12967501  0.26047768  0.18270868    -0.39300
O1094       O  0.19243563  0.07744561  0.14840185    -0.39300
O1095       O  0.14263774  0.07820696  0.17982181    -0.37000
O1096       O  0.15735184  0.05706347  0.01839664    -0.37900
O1097       O  0.14006928  0.02206930  0.06000161    -0.34100
O1098       O  0.05279555  0.19243960  0.10698920    -0.35500
O1099       O  0.04535384  0.15477156  0.14888962    -0.39800
C1100       C  0.29885342  0.33565912  0.16403175    -0.13500
C1101       C  0.33581647  0.33081316  0.17180399     0.16900
C1102       C  0.34533564  0.30440465  0.19601351     0.03200
C1103       C  0.31796728  0.28351211  0.21160064    -0.12000
C1104       C  0.28104042  0.28786681  0.20315044    -0.03100
C1105       C  0.27163349  0.31444741  0.17907190     0.02400
C1106       C  0.36304915  0.35500268  0.15522728     0.09300
N1107       N  0.38245645  0.29859592  0.20551035     0.65600
H1108       H  0.32577095  0.26294736  0.22961256     0.18500
N1109       N  0.23462329  0.32025029  0.16919291     0.76100
H1110       H  0.29102549  0.35598781  0.14577191     0.10100
C1111       C  0.38814054  0.34210106  0.12916781     0.03700
C1112       C  0.41105483  0.36649376  0.11241437    -0.05000
C1113       C  0.40961866  0.40404832  0.12048271    -0.23400
C1114       C  0.38418289  0.41711372  0.14640878     0.13000
C1115       C  0.36132522  0.39257617  0.16331432    -0.12500
N1116       N  0.38951544  0.30465378  0.11769209     0.64700
H1117       H  0.42957537  0.35593249  0.09206222     0.12500
N1118       N  0.38191783  0.45478596  0.15706619     0.61300
H1119       H  0.34190324  0.40299478  0.18294781     0.08700
O1120       O  0.22520828  0.31221496  0.13767583    -0.40200
O1121       O  0.21565816  0.34267197  0.18755700    -0.39300
O1122       O  0.39516067  0.31565053  0.23254310    -0.39300
O1123       O  0.39793717  0.26973005  0.19430657    -0.37000
O1124       O  0.35636128  0.47345293  0.14511927    -0.37900
O1125       O  0.39773288  0.46600258  0.18517197    -0.34100
O1126       O  0.37124220  0.29416989  0.09080804    -0.35500
O1127       O  0.41683147  0.28627106  0.12610382    -0.39800
C1128       C  0.32930465  0.14612008  0.29059123    -0.13500
C1129       C  0.32565153  0.15251447  0.32725987     0.16900
C1130       C  0.30014070  0.17885015  0.34002325     0.03200
C1131       C  0.27963643  0.19857758  0.31619597    -0.12000
C1132       C  0.28361991  0.19247168  0.27949741    -0.03100
C1133       C  0.30868040  0.16561262  0.26676536     0.02400
C1134       C  0.35416584  0.13789480  0.35074256     0.09300
N1135       N  0.29424288  0.18546937  0.37716700     0.65600
H1136       H  0.25979282  0.21814433  0.32648230     0.18500
N1137       N  0.31493568  0.15892108  0.22967367     0.76100
H1138       H  0.34960889  0.12703939  0.28029326     0.10100
C1139       C  0.35951160  0.10051107  0.35574901     0.03700
C1140       C  0.38919943  0.08893606  0.37602749    -0.05000
C1141       C  0.41430591  0.11389875  0.39136981    -0.23400
C1142       C  0.40893266  0.15159199  0.38522411     0.13000
C1143       C  0.37934048  0.16268699  0.36536436    -0.12500
N1144       N  0.33444206  0.07390531  0.34159550     0.64700
H1145       H  0.39183407  0.06046796  0.38013116     0.12500
N1146       N  0.43220461  0.17974160  0.40008090     0.61300
H1147       H  0.37621982  0.19134867  0.36102583     0.08700
O1148       O  0.30280747  0.13001344  0.21464769    -0.40200
O1149       O  0.34027437  0.17592298  0.21495242    -0.39300
O1150       O  0.30716560  0.21392772  0.39236221    -0.39300
O1151       O  0.26883923  0.16869108  0.39203872    -0.37000
O1152       O  0.42158158  0.19754615  0.42757825    -0.37900
O1153       O  0.45432197  0.19487524  0.37980696    -0.34100
O1154       O  0.34408352  0.05364236  0.31535058    -0.35500
O1155       O  0.30852777  0.06386225  0.36091262    -0.39800
C1156       C  0.16339211  0.39006691  0.36715319    -0.13500
C1157       C  0.13765456  0.36553256  0.35315335     0.16900
C1158       C  0.10100853  0.36890760  0.36500338     0.03200
C1159       C  0.09064361  0.39851759  0.38804441    -0.12000
C1160       C  0.11630162  0.42471708  0.40006381    -0.03100
C1161       C  0.15359415  0.41920470  0.38982117     0.02400
C1162       C  0.15160472  0.33641527  0.32776066     0.09300
N1163       N  0.07398382  0.34264020  0.35430595     0.65600
H1164       H  0.06261392  0.40057208  0.39641166     0.18500
N1165       N  0.18254060  0.44290124  0.40205643     0.76100
H1166       H  0.19199028  0.38653307  0.36051075     0.10100
C1167       C  0.17375548  0.34534115  0.29854671     0.03700
C1168       C  0.19320439  0.31828504  0.27937324    -0.05000
C1169       C  0.19057316  0.28193602  0.28780153    -0.23400
C1170       C  0.16771723  0.27260243  0.31616132     0.13000
C1171       C  0.14882312  0.29983439  0.33609705    -0.12500
N1172       N  0.17650086  0.38182197  0.28760070     0.64700
H1173       H  0.20975416  0.32565351  0.25702055     0.12500
N1174       N  0.16445378  0.23582246  0.32592181     0.61300
H1175       H  0.13307696  0.29247534  0.35896644     0.08700
O1176       O  0.20264941  0.43302002  0.42682816    -0.40200
O1177       O  0.19544005  0.46521538  0.38107298    -0.39300
O1178       O  0.06358392  0.32000472  0.37622252    -0.39300
O1179       O  0.05382910  0.34864538  0.32825356    -0.37000
O1180       O  0.18494559  0.22463485  0.34980215    -0.37900
O1181       O  0.13587859  0.21816962  0.31774307    -0.34100
O1182       O  0.20500749  0.39997576  0.29491069    -0.35500
O1183       O  0.15625162  0.39153259  0.26287369    -0.39800
loop_ 
_geom_bond_atom_site_label_1 
_geom_bond_atom_site_label_2 
_geom_bond_distance 
_geom_bond_site_symmetry_2 
_ccdc_geom_bond_type 
C1            C2   1.537       .  S
C1            C7   1.532       .  S
C1            C5   1.547       .  S
C1         C1076   1.535       .  S
C2            H9   1.086       .  S
C2            C3   1.365       .  D
C3            C4   1.552       .  S
C3         C1104   1.494       .  S
C4            C8   1.551       .  S
C4            C6   1.549       .  S
C4           H10   1.110       .  S
C5           H11   1.088       .  S
C5            C6   1.358       .  D
C6         C1132   1.496       .  S
C7           H12   1.086       .  S
C7            C8   1.362       .  D
C8         C1169   1.485       .  S
C13          C15   1.527       .  S
C13          C17   1.525       .  S
C13          C16   1.573       .  S
C13        C1160   1.538       .  S
C14          C18   1.532       .  S
C14          C20   1.530       .  S
C14          C19   1.570       .  S
C14        C1048   1.536       .  S
C15          C23   1.377       .  A
C15          C18   1.381       .  A
C16          C27   1.394       .  A
C16          C19   1.422       .  A
C17          C31   1.372       .  A
C17          C20   1.377       .  A
C18          C21   1.377       .  A
C19          C25   1.392       .  A
C20          C28   1.383       .  A
C21          N22   1.358       .  A
C21          H34   1.083       .  S
N22          C23   1.354       .  A
N22        C1020   1.435       .  S
C23          H24   1.081       .  S
C25          N26   1.361       .  A
C25          H35   1.073       .  S
N26          C27   1.366       .  A
N26         N108   1.426   1_455  S
C27          H33   1.078       .  S
C28          N29   1.357       .  A
C28          H30   1.082       .  S
N29          C31   1.354       .  A
N29        C1001   1.435       .  S
C31          H32   1.083       .  S
C36          C37   1.534       .  S
C36          C42   1.549       .  S
C36          C40   1.536       .  S
C36         C917   1.538       .  S
C37          H44   1.085       .  S
C37          C38   1.366       .  D
C38          C39   1.549       .  S
C38         C973   1.489       .  S
C39          C43   1.543       .  S
C39          C41   1.548       .  S
C39          H45   1.110       .  S
C40          H46   1.086       .  S
C40          C41   1.363       .  D
C41        C1057   1.482       .  S
C42          H47   1.096       .  S
C42          C43   1.357       .  D
C43         C936   1.493       .  S
C48          C50   1.531       .  S
C48          C52   1.537       .  S
C48          C51   1.585       .  S
C48        C1141   1.543       .  S
C49          C53   1.531       .  S
C49          C55   1.529       .  S
C49          C54   1.551       .  S
C49         C833   1.533       .  S
C50          C58   1.381       .  A
C50          C53   1.386       .  A
C51          C62   1.404       .  A
C51          C54   1.418       .  A
C52          C66   1.382       .  A
C52          C55   1.382       .  A
C53          C56   1.379       .  A
C54          C60   1.381       .  A
C55          C63   1.380       .  A
C56          N57   1.354       .  A
C56          H69   1.083       .  S
N57          C58   1.349       .  A
N57         C861   1.432       .  S
C58          H59   1.082       .  S
C60          N61   1.351       .  A
C60          H70   1.079       .  S
N61          C62   1.369       .  A
N61         N155   1.418   1_545  S
C62          H68   1.078       .  S
C63          N64   1.356       .  A
C63          H65   1.082       .  S
N64          C66   1.359       .  A
N64         C889   1.438       .  S
C66          H67   1.082       .  S
C71          C72   1.533       .  S
C71          C77   1.549       .  S
C71          C75   1.533       .  S
C71         C740   1.544       .  S
C72          H79   1.086       .  S
C72          C73   1.368       .  D
C73          C74   1.551       .  S
C73         C777   1.496       .  S
C74          C78   1.538       .  S
C74          C76   1.553       .  S
C74          H80   1.109       .  S
C75          H81   1.086       .  S
C75          C76   1.366       .  D
C76         C796   1.491       .  S
C77          H82   1.092       .  S
C77          C78   1.361       .  D
C78         C880   1.487       .  S
C83          C84   1.557       .  S
C83          C89   1.531       .  S
C83          C87   1.522       .  S
C83         C684   1.529       .  S
C84          H91   1.079       .  S
C84          C85   1.372       .  D
C85          C86   1.539       .  S
C85         C992   1.495       .  S
C86          C90   1.552       .  S
C86          C88   1.544       .  S
C86          H92   1.105       .  S
C87          H93   1.086       .  S
C87          C88   1.351       .  D
C88         C852   1.471       .  S
C89          H94   1.085       .  S
C89          C90   1.370       .  D
C90         C712   1.508       .  S
C95          C97   1.527       .  S
C95          C99   1.544       .  S
C95          C98   1.570       .  S
C95         C600   1.546       .  S
C96         C100   1.534       .  S
C96         C102   1.550       .  S
C96         C101   1.564       .  S
C96         C805   1.547       .  S
C97         C105   1.375       .  A
C97         C100   1.377       .  A
C98         C109   1.392       .  A
C98         C101   1.429       .  A
C99         C113   1.387       .  A
C99         C102   1.384       .  A
C100        C103   1.385       .  A
C101        C107   1.392       .  A
C102        C110   1.388       .  A
C103        N104   1.360       .  A
C103        H116   1.079       .  S
N104        C105   1.356       .  A
N104        C656   1.449       .  S
C105        H106   1.081       .  S
C107        N108   1.359       .  A
C107        H117   1.074       .  S
N108        C109   1.362       .  A
C109        H115   1.080       .  S
C110        N111   1.360       .  A
C110        H112   1.082       .  S
N111        C113   1.358       .  A
N111        C628   1.450       .  S
C113        H114   1.081       .  S
C118        C119   1.548       .  S
C118        C124   1.536       .  S
C118        C122   1.537       .  S
C118        C525   1.542       .  S
C119        H126   1.083       .  S
C119        C120   1.358       .  D
C120        C121   1.529       .  S
C120        C553   1.479       .  S
C121        C125   1.540       .  S
C121        C123   1.540       .  S
C121        H127   1.104       .  S
C122        H128   1.086       .  S
C122        C123   1.371       .  D
C123        C572   1.488       .  S
C124        H129   1.085       .  S
C124        C125   1.370       .  D
C125        C665   1.484       .  S
C130        C131   1.553       .  S
C130        C136   1.537       .  S
C130        C134   1.539       .  S
C130        C460   1.547       .  S
C131        H138   1.071       .  S
C131        C132   1.365       .  D
C132        C133   1.543       .  S
C132        C488   1.496       .  S
C133        C137   1.546       .  S
C133        C135   1.542       .  S
C133        H139   1.110       .  S
C134        H140   1.085       .  S
C134        C135   1.365       .  D
C135        C824   1.479       .  S
C136        H141   1.086       .  S
C136        C137   1.368       .  D
C137        C637   1.499       .  S
C142        C144   1.534       .  S
C142        C146   1.543       .  S
C142        C145   1.575       .  S
C142        C964   1.545       .  S
C143        C147   1.543       .  S
C143        C149   1.541       .  S
C143        C148   1.544       .  S
C143        C581   1.539       .  S
C144        C152   1.373       .  A
C144        C147   1.384       .  A
C145        C156   1.406       .  A
C145        C148   1.408       .  A
C146        C160   1.383       .  A
C146        C149   1.390       .  A
C147        C150   1.386       .  A
C148        C154   1.379       .  A
C149        C157   1.382       .  A
C150        N151   1.357       .  A
C150        H163   1.079       .  S
N151        C152   1.355       .  A
N151        C441   1.441       .  S
C152        H153   1.083       .  S
C154        N155   1.354       .  A
C154        H164   1.083       .  S
N155        C156   1.367       .  A
C156        H162   1.073       .  S
C157        N158   1.358       .  A
C157        H159   1.080       .  S
N158        C160   1.358       .  A
N158        C404   1.446       .  S
C160        H161   1.081       .  S
C165        C166   1.530       .  S
C165        C171   1.531       .  S
C165        C169   1.547       .  S
C165        C348   1.538       .  S
C166        H173   1.087       .  S
C166        C167   1.360       .  D
C167        C168   1.542       .  S
C167       C1029   1.469       .  S
C168        C172   1.537       .  S
C168        C170   1.545       .  S
C168        H174   1.096       .  S
C169        H175   1.083       .  S
C169        C170   1.371       .  D
C170        C432   1.520       .  S
C171        H176   1.085       .  S
C171        C172   1.366       .  D
C172        C376   1.478       .  S
C177        C178   1.534       .  S
C177        C183   1.529       .  S
C177        C181   1.553       .  S
C177        C301   1.544       .  S
C178        H185   1.086       .  S
C178        C179   1.368       .  D
C179        C180   1.547       .  S
C179        C609   1.489       .  S
C180        C184   1.546       .  S
C180        C182   1.533       .  S
C180        H186   1.109       .  S
C181        H187   1.078       .  S
C181        C182   1.366       .  D
C182        C413   1.486       .  S
C183        H188   1.086       .  S
C183        C184   1.366       .  D
C184        C329   1.487       .  S
C189        C191   1.545       .  S
C189        C193   1.551       .  S
C189        C192   1.583       .  S
C189        C768   1.557       .  S
C190        C194   1.539       .  S
C190        C196   1.523       .  S
C190        C195   1.540       .  S
C190        C385   1.529       .  S
C191        C199   1.385       .  A
C191        C194   1.385       .  A
C192        C203   1.402   1_554  A
C192        C195   1.419       .  A
C193        C207   1.384       .  A
C193        C196   1.379       .  A
C194        C197   1.382       .  A
C195        C201   1.374   1_554  A
C196        C204   1.381       .  A
C197        N198   1.352       .  A
C197        H210   1.082       .  S
N198        C199   1.359       .  A
N198        C544   1.439       .  S
C199        H200   1.083       .  S
C201        N202   1.348       .  A
C201        H211   1.080       .  S
N202        C203   1.364       .  A
N202        N225   1.413       .  S
C203        H209   1.073       .  S
C204        N205   1.358       .  A
C204        H206   1.079       .  S
N205        C207   1.362       .  A
N205       C1113   1.449       .  S
C207        H208   1.082       .  S
C212        C214   1.545       .  S
C212        C216   1.556       .  S
C212        C215   1.578       .  S
C212        C320   1.565       .  S
C213        C217   1.545       .  S
C213        C219   1.541       .  S
C213        C218   1.536       .  S
C213        C721   1.546       .  S
C214        C222   1.386       .  A
C214        C217   1.388       .  A
C215        C226   1.403       .  A
C215        C218   1.414       .  A
C216        C230   1.385       .  A
C216        C219   1.393       .  A
C217        C220   1.382       .  A
C218        C224   1.376       .  A
C219        C227   1.389       .  A
C220        N221   1.360       .  A
C220        H233   1.080       .  S
N221        C222   1.360       .  A
N221        C497   1.451       .  S
C222        H223   1.081       .  S
C224        N225   1.349       .  A
C224        H234   1.083       .  S
N225        C226   1.361       .  A
C226        H232   1.068       .  S
C227        N228   1.360       .  A
C227        H229   1.077       .  S
N228        C230   1.358       .  A
N228        C945   1.453       .  S
C230        H231   1.082       .  S
C235        N253   1.351       .  A
C235        C272   1.464       .  S
C235        C357   1.478       .  S
N236        N253   1.325   1_556  A
N236        N258   1.317       .  A
N236       Co273   2.077   1_455  S
C237        N262   1.333       .  A
C237        H282   1.080       .  S
C237        C275   1.452       .  S
H238        C279   1.081       .  S
C239        N263   1.342   1_554  A
C239        H268   1.082       .  S
C239        C243   1.470       .  S
Co240       N258   2.087       .  S
Co240       N248   2.069   1_565  S
Co240       N280   2.080       .  S
Co240       N256   2.089   1_565  S
Co240      Cl284   2.443   1_455  S
N241        C279   1.336   1_556  A
N241        N248   1.319       .  A
N241       Co242   2.081   1_455  S
Co242       N245   2.069       .  S
Co242       N262   2.056   1_655  S
Co242       N249   2.089       .  S
Co242      Cl284   2.448   1_545  S
C243        N281   1.348       .  A
C243        C749   1.484       .  S
N244        N251   1.319       .  A
N244        N274   1.320   1_556  A
N244       Co277   2.084       .  S
N245        N263   1.318       .  A
N245        N281   1.325   1_556  A
N246        C275   1.353       .  A
N246        N256   1.324       .  A
H247        C272   1.082       .  S
N248        N269   1.323   1_556  A
N249        N267   1.318       .  A
N249        N254   1.328       .  A
C250        N254   1.353       .  A
C250        C278   1.465       .  S
C250        C469   1.488       .  S
N251        C266   1.342   1_556  A
N251       Co273   2.076       .  S
C252        N280   1.336       .  A
C252        H286   1.081       .  S
C252        C255   1.461       .  S
C255        N276   1.350       .  A
C255        C908   1.478       .  S
N256        N262   1.318       .  A
N257        C283   1.340       .  A
N257        N259   1.319       .  A
N257       Co273   2.077       .  S
N258        C272   1.338   1_556  A
N259        N287   1.324       .  A
N259       Co277   2.096       .  S
H260        C283   1.081       .  S
H261        C278   1.081       .  S
N263       Co277   2.102   1_545  S
N264        N276   1.325       .  A
N264        N280   1.319       .  A
N264       Co273   2.080   1_455  S
C265        N269   1.348       .  A
C265        C279   1.463       .  S
C265       C1085   1.477       .  S
C266        H270   1.080       .  S
C266        C285   1.461       .  S
N267        C278   1.338       .  A
N267       Co277   2.089   1_545  S
C271        N287   1.353       .  A
C271        C283   1.460       .  S
C271        C292   1.479       .  S
Co273      Cl284   2.457       .  S
N274        C285   1.351       .  A
C275        C693   1.470       .  S
Co277      Cl284   2.440       .  S
C285        C516   1.478       .  S
C288        C289   1.401       .  A
C288        C293   1.399       .  A
C288        H298   1.084       .  S
C289        C290   1.411       .  A
C289        C294   1.481       .  S
C290        C291   1.401       .  A
C290        N295   1.428       .  S
C291        C292   1.403       .  A
C291        H296   1.084       .  S
C292        C293   1.412       .  A
C293        N297   1.428       .  S
C294        C299   1.404       .  A
C294        C303   1.399       .  A
N295        O310   1.262       .  A
N295        O311   1.261       .  A
N297        O308   1.262       .  A
N297        O309   1.262       .  A
C299        C300   1.399       .  A
C299        N304   1.429       .  S
C300        C301   1.413       .  A
C300        H305   1.072       .  S
C301        C302   1.424       .  A
C302        C303   1.403       .  A
C302        N306   1.430       .  S
C303        H307   1.084       .  S
N304        O314   1.262       .  A
N304        O315   1.262       .  A
N306        O312   1.262       .  A
N306        O313   1.262       .  A
C316        C317   1.397       .  A
C316        C321   1.411       .  A
C316        H326   1.084       .  S
C317        C318   1.396       .  A
C317        C322   1.483       .  S
C318        C319   1.398       .  A
C318        N323   1.430       .  S
C319        C320   1.424       .  A
C319        H324   1.083       .  S
C320        C321   1.426       .  A
C321        N325   1.418       .  S
C322        C327   1.406       .  A
C322        C331   1.405       .  A
N323        O338   1.261       .  A
N323        O339   1.262       .  A
N325        O336   1.263       .  A
N325        O337   1.262       .  A
C327        C328   1.398       .  A
C327        N332   1.428       .  S
C328        C329   1.407       .  A
C328        H333   1.084       .  S
C329        C330   1.409       .  A
C330        C331   1.404       .  A
C330        N334   1.428       .  S
C331        H335   1.084       .  S
N332        O342   1.261       .  A
N332        O343   1.262       .  A
N334        O340   1.262       .  A
N334        O341   1.262       .  A
C344        C345   1.399       .  A
C344        C349   1.399       .  A
C344        H354   1.086       .  S
C345        C346   1.404       .  A
C345        C350   1.477       .  S
C346        C347   1.394       .  A
C346        N351   1.429       .  S
C347        C348   1.413       .  A
C347        H352   1.087       .  S
C348        C349   1.422       .  A
C349        N353   1.430       .  S
C350        C355   1.408       .  A
C350        C359   1.401       .  A
N351        O366   1.262       .  A
N351        O367   1.262       .  A
N353        O364   1.261       .  A
N353        O365   1.262       .  A
C355        C356   1.397       .  A
C355        N360   1.428       .  S
C356        C357   1.404       .  A
C356        H361   1.083       .  S
C357        C358   1.411       .  A
C358        C359   1.399       .  A
C358        N362   1.427       .  S
C359        H363   1.084       .  S
N360        O370   1.262       .  A
N360        O371   1.261       .  A
N362        O368   1.261       .  A
N362        O369   1.262       .  A
C372        C373   1.398       .  A
C372        C377   1.396       .  A
C372        H382   1.084       .  S
C373        C374   1.402       .  A
C373        C378   1.463       .  S
C374        C375   1.393       .  A
C374        N379   1.427       .  S
C375        C376   1.404       .  A
C375        H380   1.083       .  S
C376        C377   1.413       .  A
C377        N381   1.428       .  S
C378        C383   1.397       .  A
C378        C387   1.398       .  A
N379        O394   1.262       .  A
N379        O395   1.262       .  A
N381        O392   1.261       .  A
N381        O393   1.262       .  A
C383        C384   1.382       .  A
C383        N388   1.430       .  S
C384        C385   1.409       .  A
C384        H389   1.078       .  S
C385        C386   1.425       .  A
C386        C387   1.406       .  A
C386        N390   1.431       .  S
C387        H391   1.084       .  S
N388        O398   1.262       .  A
N388        O399   1.262       .  A
N390        O396   1.262       .  A
N390        O397   1.262   1_554  A
C400        C401   1.401       .  A
C400        C405   1.401       .  A
C400        H410   1.084       .  S
C401        C402   1.409       .  A
C401        C406   1.483       .  S
C402        C403   1.403       .  A
C402        N407   1.429       .  S
C403        C404   1.408       .  A
C403        H408   1.083       .  S
C404        C405   1.413       .  A
C405        N409   1.427       .  S
C406        C411   1.410       .  A
C406        C415   1.404       .  A
N407        O422   1.262       .  A
N407        O423   1.261       .  A
N409        O420   1.262       .  A
N409        O421   1.262       .  A
C411        C412   1.397       .  A
C411        N416   1.428       .  S
C412        C413   1.402       .  A
C412        H417   1.084       .  S
C413        C414   1.412       .  A
C414        C415   1.405       .  A
C414        N418   1.429       .  S
C415        H419   1.084       .  S
N416        O426   1.262       .  A
N416        O427   1.262       .  A
N418        O424   1.262       .  A
N418        O425   1.262       .  A
C428        C429   1.399       .  A
C428        C433   1.407       .  A
C428        H438   1.084       .  S
C429        C430   1.402       .  A
C429        C434   1.478       .  S
C430        C431   1.395       .  A
C430        N435   1.430       .  S
C431        C432   1.414       .  A
C431        H436   1.082       .  S
C432        C433   1.425       .  A
C433        N437   1.427       .  S
C434        C439   1.408       .  A
C434        C443   1.402       .  A
N435        O450   1.262       .  A
N435        O451   1.261       .  A
N437        O448   1.263       .  A
N437        O449   1.261       .  A
C439        C440   1.395       .  A
C439        N444   1.429       .  S
C440        C441   1.403       .  A
C440        H445   1.083       .  S
C441        C442   1.415       .  A
C442        C443   1.403       .  A
C442        N446   1.429       .  S
C443        H447   1.084       .  S
N444        O454   1.262       .  A
N444        O455   1.261       .  A
N446        O452   1.262       .  A
N446        O453   1.262       .  A
C456        C457   1.399       .  A
C456        C461   1.404       .  A
C456        H466   1.083       .  S
C457        C458   1.405       .  A
C457        C462   1.485       .  S
C458        C459   1.400       .  A
C458        N463   1.429       .  S
C459        C460   1.415       .  A
C459        H464   1.068       .  S
C460        C461   1.424       .  A
C461        N465   1.430       .  S
C462        C467   1.408       .  A
C462        C471   1.404       .  A
N463        O478   1.262       .  A
N463        O479   1.261       .  A
N465        O476   1.262       .  A
N465        O477   1.262       .  A
C467        C468   1.398       .  A
C467        N472   1.428       .  S
C468        C469   1.404       .  A
C468        H473   1.082       .  S
C469        C470   1.415       .  A
C470        C471   1.406       .  A
C470        N474   1.429       .  S
C471        H475   1.084       .  S
N472        O482   1.262       .  A
N472        O483   1.262       .  A
N474        O480   1.262       .  A
N474        O481   1.262       .  A
C484        C485   1.400       .  A
C484        C489   1.403       .  A
C484        H494   1.084       .  S
C485        C486   1.409       .  A
C485        C490   1.486       .  S
C486        C487   1.403       .  A
C486        N491   1.427       .  S
C487        C488   1.404       .  A
C487        H492   1.083       .  S
C488        C489   1.421       .  A
C489        N493   1.431       .  S
C490        C495   1.407       .  A
C490        C499   1.402       .  A
N491        O506   1.262       .  A
N491        O507   1.262       .  A
N493        O504   1.262       .  A
N493        O505   1.261       .  A
C495        C496   1.401       .  A
C495        N500   1.427       .  S
C496        C497   1.407       .  A
C496        H501   1.083       .  S
C497        C498   1.418       .  A
C498        C499   1.406       .  A
C498        N502   1.428       .  S
C499        H503   1.084       .  S
N500        O510   1.262       .  A
N500        O511   1.261       .  A
N502        O508   1.262       .  A
N502        O509   1.262       .  A
C512        C513   1.400       .  A
C512        C517   1.399       .  A
C512        H522   1.084       .  S
C513        C514   1.405       .  A
C513        C518   1.474       .  S
C514        C515   1.394       .  A
C514        N519   1.427       .  S
C515        C516   1.404       .  A
C515        H520   1.084       .  S
C516        C517   1.415       .  A
C517        N521   1.427       .  S
C518        C523   1.402       .  A
C518        C527   1.397       .  A
N519        O534   1.262       .  A
N519        O535   1.262       .  A
N521        O532   1.262       .  A
N521        O533   1.261       .  A
C523        C524   1.392       .  A
C523        N528   1.430       .  S
C524        C525   1.413       .  A
C524        H529   1.079       .  S
C525        C526   1.425       .  A
C526        C527   1.404       .  A
C526        N530   1.429       .  S
C527        H531   1.085       .  S
N528        O538   1.262       .  A
N528        O539   1.262       .  A
N530        O536   1.262       .  A
N530        O537   1.262       .  A
C540        C541   1.398       .  A
C540        C545   1.400       .  A
C540        H550   1.084       .  S
C541        C542   1.409       .  A
C541        C546   1.476       .  S
C542        C543   1.400       .  A
C542        N547   1.427       .  S
C543        C544   1.401       .  A
C543        H548   1.083       .  S
C544        C545   1.415       .  A
C545        N549   1.429       .  S
C546        C551   1.407       .  A
C546        C555   1.402       .  A
N547        O562   1.262       .  A
N547        O563   1.262       .  A
N549        O560   1.262       .  A
N549        O561   1.262       .  A
C551        C552   1.396       .  A
C551        N556   1.428       .  S
C552        C553   1.402       .  A
C552        H557   1.084       .  S
C553        C554   1.410       .  A
C554        C555   1.403       .  A
C554        N558   1.428       .  S
C555        H559   1.084       .  S
N556        O566   1.262       .  A
N556        O567   1.262       .  A
N558        O564   1.262       .  A
N558        O565   1.262       .  A
C568        C569   1.405       .  A
C568        C573   1.401       .  A
C568        H578   1.083       .  S
C569        C570   1.413       .  A
C569        C574   1.491       .  S
C570        C571   1.401       .  A
C570        N575   1.428       .  S
C571        C572   1.403       .  A
C571        H576   1.084       .  S
C572        C573   1.413       .  A
C573        N577   1.430       .  S
C574        C579   1.412       .  A
C574        C583   1.406       .  A
N575        O590   1.262       .  A
N575        O591   1.262       .  A
N577        O588   1.262       .  A
N577        O589   1.262       .  A
C579        C580   1.396       .  A
C579        N584   1.429       .  S
C580        C581   1.403       .  A
C580        H585   1.083       .  S
C581        C582   1.420       .  A
C582        C583   1.411       .  A
C582        N586   1.439       .  S
C583        H587   1.082       .  S
N584        O594   1.262       .  A
N584        O595   1.261       .  A
N586        O592   1.263       .  A
N586        O593   1.263       .  A
C596        C597   1.406       .  A
C596        C601   1.417       .  A
C596        H606   1.083       .  S
C597        C598   1.398       .  A
C597        C602   1.486       .  S
C598        C599   1.389       .  A
C598        N603   1.429       .  S
C599        C600   1.415       .  A
C599        H604   1.081       .  S
C600        C601   1.424       .  A
C601        N605   1.429       .  S
C602        C607   1.407       .  A
C602        C611   1.404       .  A
N603        O618   1.262       .  A
N603        O619   1.261       .  A
N605        O616   1.262       .  A
N605        O617   1.262       .  A
C607        C608   1.402       .  A
C607        N612   1.426       .  S
C608        C609   1.403       .  A
C608        H613   1.084       .  S
C609        C610   1.414       .  A
C610        C611   1.405       .  A
C610        N614   1.428       .  S
C611        H615   1.084       .  S
N612        O622   1.262       .  A
N612        O623   1.262       .  A
N614        O620   1.262       .  A
N614        O621   1.262       .  A
C624        C625   1.403       .  A
C624        C629   1.404       .  A
C624        H634   1.083       .  S
C625        C626   1.415       .  A
C625        C630   1.499       .  S
C626        C627   1.407       .  A
C626        N631   1.428       .  S
C627        C628   1.404       .  A
C627        H632   1.083       .  S
C628        C629   1.417       .  A
C629        N633   1.428       .  S
C630        C635   1.414       .  A
C630        C639   1.406       .  A
N631        O646   1.262       .  A
N631        O647   1.262       .  A
N633        O644   1.262       .  A
N633        O645   1.262       .  A
C635        C636   1.402       .  A
C635        N640   1.429       .  S
C636        C637   1.404       .  A
C636        H641   1.084       .  S
C637        C638   1.414       .  A
C638        C639   1.411       .  A
C638        N642   1.427       .  S
C639        H643   1.083       .  S
N640        O650   1.262       .  A
N640        O651   1.262       .  A
N642        O648   1.262       .  A
N642        O649   1.262       .  A
C652        C653   1.400       .  A
C652        C657   1.399       .  A
C652        H662   1.084       .  S
C653        C654   1.406       .  A
C653        C658   1.477       .  S
C654        C655   1.397       .  A
C654        N659   1.429       .  S
C655        C656   1.411       .  A
C655        H660   1.080       .  S
C656        C657   1.417       .  A
C657        N661   1.428       .  S
C658        C663   1.408       .  A
C658        C667   1.401       .  A
N659        O674   1.262       .  A
N659        O675   1.262       .  A
N661        O672   1.262       .  A
N661        O673   1.262       .  A
C663        C664   1.394       .  A
C663        N668   1.429       .  S
C664        C665   1.403       .  A
C664        H669   1.083       .  S
C665        C666   1.414       .  A
C666        C667   1.402       .  A
C666        N670   1.429       .  S
C667        H671   1.084       .  S
N668        O678   1.262       .  A
N668        O679   1.262       .  A
N670        O676   1.262       .  A
N670        O677   1.262       .  A
C680        C681   1.395       .  A
C680        C685   1.396       .  A
C680        H690   1.084       .  S
C681        C682   1.409       .  A
C681        C686   1.475       .  S
C682        C683   1.396       .  A
C682        N687   1.429       .  S
C683        C684   1.406       .  A
C683        H688   1.075       .  S
C684        C685   1.426       .  A
C685        N689   1.431       .  S
C686        C691   1.413       .  A
C686        C695   1.397       .  A
N687        O702   1.262       .  A
N687        O703   1.262       .  A
N689        O700   1.262       .  A
N689        O701   1.262       .  A
C691        C692   1.398       .  A
C691        N696   1.428       .  S
C692        C693   1.399       .  A
C692        H697   1.084       .  S
C693        C694   1.415       .  A
C694        C695   1.393       .  A
C694        N698   1.429       .  S
C695        H699   1.084       .  S
N696        O706   1.262       .  A
N696        O707   1.262       .  A
N698        O704   1.262       .  A
N698        O705   1.262       .  A
C708        C709   1.399       .  A
C708        C713   1.400       .  A
C708        H718   1.083       .  S
C709        C710   1.411       .  A
C709        C714   1.492       .  S
C710        C711   1.404       .  A
C710        N715   1.429       .  S
C711        C712   1.413       .  A
C711        H716   1.082       .  S
C712        C713   1.417       .  A
C713        N717   1.424       .  S
C714        C719   1.413       .  A
C714        C723   1.402       .  A
N715        O730   1.262       .  A
N715        O731   1.262       .  A
N717        O728   1.262       .  A
N717        O729   1.262       .  A
C719        C720   1.399       .  A
C719        N724   1.429       .  S
C720        C721   1.404       .  A
C720        H725   1.082       .  S
C721        C722   1.422       .  A
C722        C723   1.407       .  A
C722        N726   1.432       .  S
C723        H727   1.082       .  S
N724        O734   1.262       .  A
N724        O735   1.261       .  A
N726        O732   1.262       .  A
N726        O733   1.263       .  A
C736        C737   1.401       .  A
C736        C741   1.403       .  A
C736        H746   1.087       .  S
C737        C738   1.407       .  A
C737        C742   1.486       .  S
C738        C739   1.396       .  A
C738        N743   1.429       .  S
C739        C740   1.411       .  A
C739        H744   1.095       .  S
C740        C741   1.424       .  A
C741        N745   1.430       .  S
C742        C747   1.412       .  A
C742        C751   1.403       .  A
N743        O758   1.262       .  A
N743        O759   1.262       .  A
N745        O756   1.262       .  A
N745        O757   1.262       .  A
C747        C748   1.401       .  A
C747        N752   1.428       .  S
C748        C749   1.403       .  A
C748        H753   1.083       .  S
C749        C750   1.414       .  A
C750        C751   1.401       .  A
C750        N754   1.430       .  S
C751        H755   1.084       .  S
N752        O762   1.262       .  A
N752        O763   1.261       .  A
N754        O760   1.262       .  A
N754        O761   1.262       .  A
C764        C765   1.405       .  A
C764        C769   1.417       .  A
C764        H774   1.084       .  S
C765        C766   1.399       .  A
C765        C770   1.489       .  S
C766        C767   1.390       .  A
C766        N771   1.429       .  S
C767        C768   1.417       .  A
C767        H772   1.084       .  S
C768        C769   1.423       .  A
C769        N773   1.422       .  S
C770        C775   1.408       .  A
C770        C779   1.404       .  A
N771        O786   1.262       .  A
N771        O787   1.262       .  A
N773        O784   1.262   1_554  A
N773        O785   1.262       .  A
C775        C776   1.403       .  A
C775        N780   1.428       .  S
C776        C777   1.409       .  A
C776        H781   1.084       .  S
C777        C778   1.411       .  A
C778        C779   1.404       .  A
C778        N782   1.425       .  S
C779        H783   1.084       .  S
N780        O790   1.262       .  A
N780        O791   1.262       .  A
N782        O788   1.262       .  A
N782        O789   1.262       .  A
C792        C793   1.399       .  A
C792        C797   1.401       .  A
C792        H802   1.084       .  S
C793        C794   1.410       .  A
C793        C798   1.482       .  S
C794        C795   1.404       .  A
C794        N799   1.428       .  S
C795        C796   1.401       .  A
C795        H800   1.077       .  S
C796        C797   1.416       .  A
C797        N801   1.428       .  S
C798        C803   1.398       .  A
C798        C807   1.404       .  A
N799        O814   1.262       .  A
N799        O815   1.262       .  A
N801        O812   1.261       .  A
N801        O813   1.262       .  A
C803        C804   1.388       .  A
C803        N808   1.429       .  S
C804        C805   1.415       .  A
C804        H809   1.084       .  S
C805        C806   1.424       .  A
C806        C807   1.415       .  A
C806        N810   1.425       .  S
C807        H811   1.084       .  S
N808        O818   1.262       .  A
N808        O819   1.262       .  A
N810        O816   1.263       .  A
N810        O817   1.262       .  A
C820        C821   1.402       .  A
C820        C825   1.399       .  A
C820        H830   1.084       .  S
C821        C822   1.412       .  A
C821        C826   1.483       .  S
C822        C823   1.404       .  A
C822        N827   1.427       .  S
C823        C824   1.399       .  A
C823        H828   1.083       .  S
C824        C825   1.408       .  A
C825        N829   1.426       .  S
C826        C831   1.408       .  A
C826        C835   1.399       .  A
N827        O842   1.262       .  A
N827        O843   1.262       .  A
N829        O840   1.262       .  A
N829        O841   1.261       .  A
C831        C832   1.403       .  A
C831        N836   1.427       .  S
C832        C833   1.407       .  A
C832        H837   1.076       .  S
C833        C834   1.426       .  A
C834        C835   1.397       .  A
C834        N838   1.436       .  S
C835        H839   1.085       .  S
N836        O846   1.262       .  A
N836        O847   1.261       .  A
N838        O844   1.263       .  A
N838        O845   1.262       .  A
C848        C849   1.399       .  A
C848        C853   1.397       .  A
C848        H858   1.085       .  S
C849        C850   1.408       .  A
C849        C854   1.465       .  S
C850        C851   1.390       .  A
C850        N855   1.428       .  S
C851        C852   1.390       .  A
C851        H856   1.084       .  S
C852        C853   1.414       .  A
C853        N857   1.429       .  S
C854        C859   1.406       .  A
C854        C863   1.398       .  A
N855        O870   1.262       .  A
N855        O871   1.262       .  A
N857        O868   1.262       .  A
N857        O869   1.262       .  A
C859        C860   1.396       .  A
C859        N864   1.428       .  S
C860        C861   1.402       .  A
C860        H865   1.083       .  S
C861        C862   1.411       .  A
C862        C863   1.395       .  A
C862        N866   1.428       .  S
C863        H867   1.084       .  S
N864        O874   1.262       .  A
N864        O875   1.261       .  A
N866        O872   1.262       .  A
N866        O873   1.262       .  A
C876        C877   1.408       .  A
C876        C881   1.405       .  A
C876        H886   1.081       .  S
C877        C878   1.418       .  A
C877        C882   1.501       .  S
C878        C879   1.400       .  A
C878        N883   1.430       .  S
C879        C880   1.400       .  A
C879        H884   1.081       .  S
C880        C881   1.408       .  A
C881        N885   1.427       .  S
C882        C887   1.419       .  A
C882        C891   1.408       .  A
N883        O898   1.262       .  A
N883        O899   1.262       .  A
N885        O896   1.262       .  A
N885        O897   1.261       .  A
C887        C888   1.402       .  A
C887        N892   1.429       .  S
C888        C889   1.399       .  A
C888        H893   1.082       .  S
C889        C890   1.406       .  A
C890        C891   1.401       .  A
C890        N894   1.428       .  S
C891        H895   1.081       .  S
N892        O902   1.262       .  A
N892        O903   1.261       .  A
N894        O900   1.262       .  A
N894        O901   1.262       .  A
C904        C905   1.402       .  A
C904        C909   1.398       .  A
C904        H914   1.083       .  S
C905        C906   1.411       .  A
C905        C910   1.482       .  S
C906        C907   1.397       .  A
C906        N911   1.429       .  S
C907        C908   1.403       .  A
C907        H912   1.083       .  S
C908        C909   1.413       .  A
C909        N913   1.428       .  S
C910        C915   1.408       .  A
C910        C919   1.399       .  A
N911        O926   1.262       .  A
N911        O927   1.262       .  A
N913        O924   1.262       .  A
N913        O925   1.262       .  A
C915        C916   1.389       .  A
C915        N920   1.430       .  S
C916        C917   1.408       .  A
C916        H921   1.102       .  S
C917        C918   1.424       .  A
C918        C919   1.402       .  A
C918        N922   1.430       .  S
C919        H923   1.086       .  S
N920        O930   1.262       .  A
N920        O931   1.262       .  A
N922        O928   1.262       .  A
N922        O929   1.262       .  A
C932        C933   1.402       .  A
C932        C937   1.401       .  A
C932        H942   1.084       .  S
C933        C934   1.416       .  A
C933        C938   1.496       .  S
C934        C935   1.409       .  A
C934        N939   1.428       .  S
C935        C936   1.403       .  A
C935        H940   1.084       .  S
C936        C937   1.415       .  A
C937        N941   1.429       .  S
C938        C943   1.413       .  A
C938        C947   1.405       .  A
N939        O954   1.262       .  A
N939        O955   1.262       .  A
N941        O952   1.262       .  A
N941        O953   1.262       .  A
C943        C944   1.405       .  A
C943        N948   1.428       .  S
C944        C945   1.406       .  A
C944        H949   1.083       .  S
C945        C946   1.417       .  A
C946        C947   1.406       .  A
C946        N950   1.428       .  S
C947        H951   1.084       .  S
N948        O958   1.262       .  A
N948        O959   1.262       .  A
N950        O956   1.262       .  A
N950        O957   1.262       .  A
C960        C961   1.393       .  A
C960        C965   1.395       .  A
C960        H970   1.082       .  S
C961        C962   1.413       .  A
C961        C966   1.492       .  S
C962        C963   1.409       .  A
C962        N967   1.428       .  S
C963        C964   1.406       .  A
C963        H968   1.060       .  S
C964        C965   1.438       .  A
C965        N969   1.437       .  S
C966        C971   1.418       .  A
C966        C975   1.402       .  A
N967        O982   1.262       .  A
N967        O983   1.262       .  A
N969        O980   1.262       .  A
N969        O981   1.261       .  A
C971        C972   1.402       .  A
C971        N976   1.429       .  S
C972        C973   1.399       .  A
C972        H977   1.082       .  S
C973        C974   1.414       .  A
C974        C975   1.403       .  A
C974        N978   1.429       .  S
C975        H979   1.083       .  S
N976        O986   1.262       .  A
N976        O987   1.262       .  A
N978        O984   1.262       .  A
N978        O985   1.262       .  A
C988        C989   1.397       .  A
C988        C993   1.400       .  A
C988        H998   1.084       .  S
C989        C990   1.403       .  A
C989        C994   1.472       .  S
C990        C991   1.402       .  A
C990        N995   1.430       .  S
C991        C992   1.411       .  A
C991        H996   1.083       .  S
C992        C993   1.416       .  A
C993        N997   1.427       .  S
C994        C999   1.406       .  A
C994       C1003   1.401       .  A
N995       O1010   1.262       .  A
N995       O1011   1.262       .  A
N997       O1008   1.262       .  A
N997       O1009   1.262       .  A
C999       C1000   1.393       .  A
C999       N1004   1.428       .  S
C1000      C1001   1.401       .  A
C1000      H1005   1.083       .  S
C1001      C1002   1.412       .  A
C1002      C1003   1.402       .  A
C1002      N1006   1.428       .  S
C1003      H1007   1.084       .  S
N1004      O1014   1.261       .  A
N1004      O1015   1.262       .  A
N1006      O1012   1.261       .  A
N1006      O1013   1.262       .  A
C1016      C1017   1.397       .  A
C1016      C1021   1.395       .  A
C1016      H1026   1.084       .  S
C1017      C1018   1.406       .  A
C1017      C1022   1.468       .  S
C1018      C1019   1.398       .  A
C1018      N1023   1.428       .  S
C1019      C1020   1.403       .  A
C1019      H1024   1.083       .  S
C1020      C1021   1.413       .  A
C1021      N1025   1.428       .  S
C1022      C1027   1.408       .  A
C1022      C1031   1.400       .  A
N1023      O1038   1.262       .  A
N1023      O1039   1.262       .  A
N1025      O1036   1.262       .  A
N1025      O1037   1.262       .  A
C1027      C1028   1.394       .  A
C1027      N1032   1.428       .  S
C1028      C1029   1.397       .  A
C1028      H1033   1.084       .  S
C1029      C1030   1.410       .  A
C1030      C1031   1.399       .  A
C1030      N1034   1.428       .  S
C1031      H1035   1.084       .  S
N1032      O1042   1.262       .  A
N1032      O1043   1.262       .  A
N1034      O1040   1.261       .  A
N1034      O1041   1.261       .  A
C1044      C1045   1.391       .  A
C1044      C1049   1.393       .  A
C1044      H1054   1.083       .  S
C1045      C1046   1.409       .  A
C1045      C1050   1.481       .  S
C1046      C1047   1.408       .  A
C1046      N1051   1.427       .  S
C1047      C1048   1.407       .  A
C1047      H1052   1.062       .  S
C1048      C1049   1.430       .  A
C1049      N1053   1.433       .  S
C1050      C1055   1.411       .  A
C1050      C1059   1.402       .  A
N1051      O1066   1.262       .  A
N1051      O1067   1.262       .  A
N1053      O1064   1.262       .  A
N1053      O1065   1.262       .  A
C1055      C1056   1.400       .  A
C1055      N1060   1.428       .  S
C1056      C1057   1.399       .  A
C1056      H1061   1.082       .  S
C1057      C1058   1.411       .  A
C1058      C1059   1.405       .  A
C1058      N1062   1.428       .  S
C1059      H1063   1.084       .  S
N1060      O1070   1.262       .  A
N1060      O1071   1.262       .  A
N1062      O1068   1.262       .  A
N1062      O1069   1.261       .  A
C1072      C1073   1.399       .  A
C1072      C1077   1.400       .  A
C1072      H1082   1.084       .  S
C1073      C1074   1.410       .  A
C1073      C1078   1.484       .  S
C1074      C1075   1.389       .  A
C1074      N1079   1.430       .  S
C1075      C1076   1.407       .  A
C1075      H1080   1.091       .  S
C1076      C1077   1.423       .  A
C1077      N1081   1.429       .  S
C1078      C1083   1.413       .  A
C1078      C1087   1.402       .  A
N1079      O1094   1.263       .  A
N1079      O1095   1.261       .  A
N1081      O1092   1.261       .  A
N1081      O1093   1.262       .  A
C1083      C1084   1.395       .  A
C1083      N1088   1.429       .  S
C1084      C1085   1.403       .  A
C1084      H1089   1.082       .  S
C1085      C1086   1.413       .  A
C1086      C1087   1.395       .  A
C1086      N1090   1.429       .  S
C1087      H1091   1.082       .  S
N1088      O1098   1.262       .  A
N1088      O1099   1.262       .  A
N1090      O1096   1.262       .  A
N1090      O1097   1.262       .  A
C1100      C1101   1.401       .  A
C1100      C1105   1.402       .  A
C1100      H1110   1.084       .  S
C1101      C1102   1.415       .  A
C1101      C1106   1.493       .  S
C1102      C1103   1.408       .  A
C1102      N1107   1.427       .  S
C1103      C1104   1.403       .  A
C1103      H1108   1.084       .  S
C1104      C1105   1.415       .  A
C1105      N1109   1.427       .  S
C1106      C1111   1.411       .  A
C1106      C1115   1.405       .  A
N1107      O1122   1.261       .  A
N1107      O1123   1.262       .  A
N1109      O1120   1.261       .  A
N1109      O1121   1.262       .  A
C1111      C1112   1.401       .  A
C1111      N1116   1.427       .  S
C1112      C1113   1.404       .  A
C1112      H1117   1.083       .  S
C1113      C1114   1.418       .  A
C1114      C1115   1.406       .  A
C1114      N1118   1.429       .  S
C1115      H1119   1.084       .  S
N1116      O1126   1.262       .  A
N1116      O1127   1.261       .  A
N1118      O1124   1.262       .  A
N1118      O1125   1.262       .  A
C1128      C1129   1.400       .  A
C1128      C1133   1.404       .  A
C1128      H1138   1.084       .  S
C1129      C1130   1.417       .  A
C1129      C1134   1.493       .  S
C1130      C1131   1.407       .  A
C1130      N1135   1.428       .  S
C1131      C1132   1.401       .  A
C1131      H1136   1.084       .  S
C1132      C1133   1.418       .  A
C1133      N1137   1.429       .  S
C1134      C1139   1.415       .  A
C1134      C1143   1.392       .  A
N1135      O1150   1.262       .  A
N1135      O1151   1.262       .  A
N1137      O1148   1.262       .  A
N1137      O1149   1.262       .  A
C1139      C1140   1.412       .  A
C1139      N1144   1.427       .  S
C1140      C1141   1.404       .  A
C1140      H1145   1.074       .  S
C1141      C1142   1.435       .  A
C1142      C1143   1.395       .  A
C1142      N1146   1.434       .  S
C1143      H1147   1.084       .  S
N1144      O1154   1.262       .  A
N1144      O1155   1.262       .  A
N1146      O1152   1.262       .  A
N1146      O1153   1.261       .  A
C1156      C1157   1.391       .  A
C1156      C1161   1.388       .  A
C1156      H1166   1.084       .  S
C1157      C1158   1.418       .  A
C1157      C1162   1.494       .  S
C1158      C1159   1.414       .  A
C1158      N1163   1.427       .  S
C1159      C1160   1.405       .  A
C1159      H1164   1.076       .  S
C1160      C1161   1.432       .  A
C1161      N1165   1.434       .  S
C1162      C1167   1.420       .  A
C1162      C1171   1.404       .  A
N1163      O1178   1.262       .  A
N1163      O1179   1.261       .  A
N1165      O1176   1.262       .  A
N1165      O1177   1.261       .  A
C1167      C1168   1.399       .  A
C1167      N1172   1.430       .  S
C1168      C1169   1.396       .  A
C1168      H1173   1.083       .  S
C1169      C1170   1.413       .  A
C1170      C1171   1.408       .  A
C1170      N1174   1.428       .  S
C1171      H1175   1.083       .  S
N1172      O1182   1.262       .  A
N1172      O1183   1.262       .  A
N1174      O1180   1.262       .  A
N1174      O1181   1.262       .  A
