geometry optimzed in LAMMPS
_audit_creation_date              2020-11-30 
_audit_creation_method            'lammps2cif' 
_symmetry_space_group_name_H-M    'P1' 
_symmetry_Int_Tables_number       1 
_symmetry_cell_setting            triclinic 
loop_ 
_symmetry_equiv_pos_as_xyz 
  x,y,z 
_cell_length_a                    29.57831347379367 
_cell_length_b                    30.062501793757285 
_cell_length_c                    29.91893040238876 
_cell_angle_alpha                 88.69735698739397 
_cell_angle_beta                  89.880415285091 
_cell_angle_gamma                 89.37631043896957 
loop_ 
_atom_site_label 
_atom_site_type_symbol 
_atom_site_fract_x 
_atom_site_fract_y 
_atom_site_fract_z 
_atom_site_charge 
C1          C  0.36661550  0.63834857  0.63233767    -0.03320
N2          N  0.43848810  0.42084691  0.55440990    -0.06960
N3          N  0.42662145  0.38750906  0.58150705    -0.59080
N4          N  0.40809054  0.45191431  0.45154625    -0.06640
N5          N  0.37660159  0.43927139  0.42319069    -0.61200
N6          N  0.44207969  0.42344943  0.45112475    -0.06230
N7          N  0.43525402  0.39244229  0.42163703    -0.59050
N8          N  0.40663086  0.45176475  0.55401219    -0.05910
N9          N  0.37283275  0.43924820  0.58048459    -0.61560
C10         C  0.38492559  0.39833105  0.59718123     0.95220
C11         C  0.39422105  0.40193419  0.40432833     0.95000
N12         N  0.44172336  0.58828420  0.44514053    -0.07140
N13         N  0.43173451  0.61913630  0.41423087    -0.59650
N14         N  0.40842170  0.55985910  0.55172546    -0.05260
N15         N  0.37909644  0.56957920  0.58377346    -0.60910
N16         N  0.43945530  0.59085447  0.54874579    -0.07170
N17         N  0.43153615  0.62197051  0.57832409    -0.59920
N18         N  0.40874235  0.55919292  0.44802708    -0.04900
N19         N  0.37609244  0.57054772  0.41962024    -0.60990
Mn20       Mn  0.40681995  0.50591351  0.50160935     1.18440
C21         C  0.39031162  0.60830902  0.39830424     0.97300
C22         C  0.39450459  0.60807488  0.60119650     0.97970
N23         N  0.54750068  0.42236074  0.45150578    -0.07190
N24         N  0.55429719  0.39514417  0.41769218    -0.63500
N25         N  0.57797032  0.45051186  0.55672766    -0.05990
N26         N  0.60887938  0.43890463  0.58683964    -0.64170
N27         N  0.54696097  0.41959583  0.55444497    -0.06700
N28         N  0.55647791  0.38639235  0.58249144    -0.63760
N29         N  0.58062564  0.45102845  0.45415116    -0.05590
N30         N  0.61101999  0.44272697  0.42307140    -0.64450
Mn31       Mn  0.49381859  0.42102358  0.50298288     1.10660
C32         C  0.59360997  0.40919143  0.39890443     0.98530
C33         C  0.59440398  0.39921018  0.60367513     0.98600
N34         N  0.54516263  0.58868013  0.55407506    -0.06700
N35         N  0.55275271  0.62038054  0.58316780    -0.62080
N36         N  0.58484110  0.55748620  0.45326813    -0.06020
N37         N  0.62022620  0.56776404  0.42799580    -0.58810
N38         N  0.55345913  0.58864711  0.44966519    -0.07330
N39         N  0.56768661  0.62026208  0.42149600    -0.61640
N40         N  0.57798422  0.55877892  0.55556593    -0.06320
N41         N  0.60919291  0.57127271  0.58420327    -0.58830
Mn42       Mn  0.49485743  0.59000840  0.49861269     1.20190
Mn43       Mn  0.58122220  0.50429982  0.50535288     1.10090
Cl44       Cl  0.49412776  0.50549765  0.50218351    -0.86800
C45         C  0.59375874  0.61041445  0.60118447     0.95530
C46         C  0.60988251  0.60732186  0.40766985     0.95330
C47         C  0.62075831  0.36950517  0.63725073    -0.03320
C48         C  0.36777913  0.37045222  0.37387769    -0.03320
C49         C  0.64227326  0.63597580  0.37589505    -0.03320
C50         C  0.36008565  0.63915939  0.36689417    -0.03320
C51         C  0.62200012  0.38338033  0.36498900    -0.03320
C52         C  0.35352402  0.36762091  0.62709348    -0.03320
C53         C  0.62410181  0.64283508  0.62840143    -0.03320
C54         C  0.25466994  0.24884682  0.00290576    -0.00270
C55         C  0.22805589  0.28665535  0.00271920    -0.00270
C56         C  0.22097083  0.99405254  0.24696136    -0.00270
C57         C  0.25049187  0.99384023  0.21127933    -0.00270
C58         C  0.99614838  0.21776333  0.25490385    -0.00270
C59         C  0.99538604  0.24505813  0.21740679    -0.00270
C60         C  0.49507889  0.27323277  0.26170929    -0.00270
C61         C  0.49162946  0.24274509  0.22850925    -0.00270
C62         C  0.27138329  0.25287268  0.49447549    -0.00270
C63         C  0.23867227  0.22108718  0.49304087    -0.00270
C64         C  0.24326961  0.50221007  0.29065577    -0.00270
C65         C  0.20916120  0.49896562  0.25958046    -0.00270
C66         C  0.23734916  0.72529342  0.00461913    -0.00270
C67         C  0.27737538  0.74905643  0.00390125    -0.00270
C68         C  0.76999032  0.26301137  0.00419778    -0.00270
C69         C  0.74227064  0.22616657  0.00369921    -0.00270
C70         C  0.99463955  0.27109078  0.77102495    -0.00270
C71         C  0.98938149  0.24991988  0.73060760    -0.00270
C72         C  0.75170130  0.50549884  0.28050876    -0.00270
C73         C  0.78549893  0.50498501  0.24887640    -0.00270
C74         C  0.24344241  0.50168829  0.77788016    -0.00270
C75         C  0.27348839  0.50407695  0.74276505    -0.00270
C76         C  0.85718868  0.63730886  0.86527975    -0.03320
N77         N  0.93652266  0.55872634  0.91693779    -0.06960
N78         N  0.90680057  0.56813648  0.88493565    -0.59080
N79         N  0.03927023  0.59279248  0.94320648    -0.06640
N80         N  0.06828159  0.62372915  0.93122676    -0.61200
N81         N  0.04199185  0.55944672  0.91568858    -0.06230
N82         N  0.07560254  0.56545397  0.88687429    -0.59050
N83         N  0.93715790  0.59083754  0.94606496    -0.05910
N84         N  0.90835899  0.62283852  0.93385532    -0.61560
C85         C  0.88928394  0.60849916  0.89553004     0.95220
C86         C  0.09265926  0.60550899  0.89753239     0.95000
N87         N  0.04683646  0.56092711  0.08292477    -0.07140
N88         N  0.07787752  0.56869549  0.11338731    -0.59650
N89         N  0.93939375  0.58810273  0.05177753    -0.05260
N90         N  0.90841936  0.61844951  0.05970070    -0.60910
N91         N  0.94275928  0.55980673  0.08576848    -0.07170
N92         N  0.91558672  0.57237905  0.11845706    -0.59920
N93         N  0.04406399  0.59426941  0.05375547    -0.04900
N94         N  0.07213268  0.62622495  0.06616881    -0.60990
Mn95       Mn  0.99011862  0.59260102  0.99882040     1.18440
C96         C  0.09347853  0.61001744  0.10389088     0.97300
C97         C  0.89399918  0.60921282  0.10147464     0.97970
N98         N  0.04507214  0.45766084  0.91881475    -0.07190
N99         N  0.07412885  0.45013200  0.88620963    -0.63500
N100        N  0.94211260  0.41965173  0.95136631    -0.05990
N101        N  0.91286427  0.38787781  0.94144141    -0.64170
N102        N  0.93967223  0.45199136  0.92097455    -0.06700
N103        N  0.90864090  0.44284405  0.89085022    -0.63760
N104        N  0.04657818  0.42541534  0.94908558    -0.05590
N105        N  0.07560151  0.39461676  0.93659421    -0.64450
Mn106      Mn  0.99045433  0.50680010  0.91744243     1.10660
C107        C  0.09257684  0.41014950  0.89701391     0.98530
C108        C  0.89124942  0.40281285  0.90350434     0.98600
N109        N  0.94524177  0.45160860  0.08835570    -0.06700
N110        N  0.91514821  0.44025577  0.11944367    -0.62080
N111        N  0.04953455  0.42452387  0.05722194    -0.06020
N112        N  0.07600965  0.39175741  0.07165161    -0.58810
N113        N  0.05045546  0.45710488  0.08585844    -0.07330
N114        N  0.07944642  0.44794905  0.11864101    -0.61640
N115        N  0.94948371  0.41908187  0.05995738    -0.06320
N116        N  0.92538306  0.38461544  0.07306998    -0.58830
Mn117      Mn  0.99591529  0.50748922  0.08659186     1.20190
Mn118      Mn  0.99704899  0.42126055  0.00413755     1.10090
Cl119      Cl  0.99298153  0.50701642  0.00193613    -0.86800
C120        C  0.90193438  0.39816523  0.10924598     0.95530
C121        C  0.09488979  0.40648455  0.10994675     0.95330
C122        C  0.86653297  0.36855099  0.13593838    -0.03320
C123        C  0.11969142  0.38059977  0.86538283    -0.03320
C124        C  0.12948295  0.63141809  0.87166296    -0.03320
C125        C  0.85941378  0.37434560  0.87289917    -0.03320
C126        C  0.86524296  0.64143432  0.12905004    -0.03320
C127        C  0.72533303  0.50438384  0.73228450    -0.00270
C128        C  0.76347408  0.50560128  0.75862502    -0.00270
C129        C  0.12635422  0.63533858  0.13614859    -0.03320
C130        C  0.12322245  0.37597795  0.14168346    -0.03320
C131        C  0.24835755  0.00328038  0.77090643    -0.00270
C132        C  0.21336069  0.00616771  0.74077120    -0.00270
C133        C  0.50444182  0.71939020  0.25804192    -0.00270
C134        C  0.50765398  0.75768597  0.23176263    -0.00270
C135        C  0.48360874  0.27490962  0.74482788    -0.00270
C136        C  0.48428510  0.23984261  0.77501730    -0.00270
C137        C  0.62546309  0.14004757  0.87310257    -0.03320
N138        N  0.54732697  0.92442195  0.95202143    -0.06960
N139        N  0.55352311  0.89671834  0.91899696    -0.59080
N140        N  0.57950782  0.95155534  0.05908033    -0.06640
N141        N  0.61007173  0.94189914  0.09019432    -0.61200
N142        N  0.55010483  0.91915274  0.05705665    -0.06230
N143        N  0.56101203  0.88692890  0.08625415    -0.59050
N144        N  0.58155925  0.95170344  0.95477996    -0.05910
N145        N  0.61295179  0.94079314  0.92514317    -0.61560
C146        C  0.59516554  0.90591079  0.90295704     0.95220
C147        C  0.59861591  0.90129308  0.10754093     0.95000
N148        N  0.54803754  0.09022376  0.05347217    -0.07140
N149        N  0.55799604  0.12258284  0.08119211    -0.59650
N150        N  0.58015280  0.05901264  0.95327766    -0.05260
N151        N  0.61335070  0.07170488  0.92626220    -0.60910
N152        N  0.54650383  0.08807386  0.95082651    -0.07170
N153        N  0.55620866  0.12032235  0.92174231    -0.59920
N154        N  0.57960546  0.05903176  0.05523171    -0.04900
N155        N  0.61147328  0.06981684  0.08381717    -0.60990
Mn156      Mn  0.58135966  0.00499128  0.00588923     1.18440
C157        C  0.59769988  0.10944870  0.10047796     0.97300
C158        C  0.59819051  0.11012193  0.90636820     0.97970
N159        N  0.44362035  0.91701236  0.05724385    -0.07190
N160        N  0.43533452  0.88309025  0.08453622    -0.63500
N161        N  0.40959116  0.94988314  0.95544307    -0.05990
N162        N  0.37797083  0.94125784  0.92625700    -0.64170
N163        N  0.44105904  0.91883387  0.95426123    -0.06700
N164        N  0.43036073  0.88854347  0.92434234    -0.63760
N165        N  0.41018740  0.94610210  0.05824944    -0.05590
N166        N  0.37812124  0.93127900  0.08579894    -0.64450
Mn167      Mn  0.49591499  0.91910747  0.00493984     1.10660
C168        C  0.39418751  0.89143743  0.10231620     0.98530
C169        C  0.39084405  0.90380434  0.90582211     0.98600
N170        N  0.43583190  0.08675165  0.95182019    -0.06700
N171        N  0.42283930  0.11840289  0.92275455    -0.62080
N172        N  0.41057435  0.05434795  0.05865849    -0.06020
N173        N  0.37897559  0.06568202  0.08776447    -0.58810
N174        N  0.44176381  0.08535082  0.05656351    -0.07330
N175        N  0.43226862  0.11746442  0.08465394    -0.61640
N176        N  0.40423464  0.05628305  0.95494055    -0.06320
N177        N  0.36949839  0.06742218  0.92864621    -0.58830
Mn178      Mn  0.49272858  0.08835601  0.00258663     1.20190
Mn179      Mn  0.40769779  0.00178914  0.00717925     1.10090
Cl180      Cl  0.49442168  0.00378871  0.00502369    -0.86800
C181        C  0.38072077  0.10688141  0.90873171     0.95530
C182        C  0.39275192  0.10537716  0.10390214     0.95330
C183        C  0.63314525  0.86871161  0.13117666    -0.03320
C184        C  0.35899501  0.87649256  0.87584752    -0.03320
C185        C  0.34942820  0.13559985  0.87603799    -0.03320
C186        C  0.62191873  0.87657068  0.86994053    -0.03320
C187        C  0.36782687  0.85709731  0.13263374    -0.03320
C188        C  0.49175335  0.78153170  0.76231185    -0.00270
C189        C  0.49433102  0.74799070  0.73142370    -0.00270
C190        C  0.36147276  0.13686120  0.13013755    -0.03320
C191        C  0.62645510  0.13690539  0.13360027    -0.03320
C192        C  0.99367452  0.74778648  0.22501307    -0.00270
C193        C  0.99166315  0.77300134  0.26242912    -0.00270
C194        C  0.74670106  0.00158643  0.27589447    -0.00270
C195        C  0.71339047  0.99874546  0.24469943    -0.00270
C196        C  0.72133706  0.27084516  0.49916920    -0.00270
C197        C  0.75446364  0.23773912  0.49962261    -0.00270
C198        C  0.25899678  0.73984201  0.49980815    -0.00270
C199        C  0.23480822  0.77909093  0.49930350    -0.00270
C200        C  0.85327292  0.13732272  0.36004733    -0.03320
N201        N  0.94224916  0.06381860  0.40899255    -0.06960
N202        N  0.90945741  0.07062939  0.37922581    -0.59080
N203        N  0.04971951  0.09668894  0.43747633    -0.06640
N204        N  0.08175406  0.12566506  0.42543184    -0.61200
N205        N  0.04910039  0.06404805  0.40873806    -0.06230
N206        N  0.08087439  0.07003164  0.37802653    -0.59050
N207        N  0.94353442  0.09693894  0.43700109    -0.05910
N208        N  0.91276886  0.12734835  0.42510440    -0.61560
C209        C  0.89075116  0.11079213  0.38896111     0.95220
C210        C  0.10186450  0.10846339  0.38812597     0.95000
N211        N  0.04581529  0.06573262  0.57931120    -0.07140
N212        N  0.07262983  0.07583560  0.61281433    -0.59650
N213        N  0.94266132  0.09699614  0.54734594    -0.05260
N214        N  0.91466468  0.12891863  0.56073744    -0.60910
N215        N  0.94111998  0.06325654  0.57629429    -0.07170
N216        N  0.91055600  0.07079409  0.60762201    -0.59920
N217        N  0.04594689  0.09788606  0.54850855    -0.04900
N218        N  0.07244279  0.13050433  0.56148559    -0.60990
Mn219      Mn  0.99568269  0.09868864  0.49229020     1.18440
C220        C  0.08924259  0.11645935  0.60187886     0.97300
C221        C  0.89476827  0.11244114  0.59885145     0.97970
N222        N  0.04800054  0.95724710  0.41133330    -0.07190
N223        N  0.07481637  0.94382988  0.37854645    -0.63500
N224        N  0.94485141  0.92778530  0.44534311    -0.05990
N225        N  0.91723645  0.89503405  0.43615656    -0.64170
N226        N  0.94531199  0.95732500  0.41224929    -0.06700
N227        N  0.91845435  0.94452129  0.37983900    -0.63760
N228        N  0.04895679  0.92805370  0.44474325    -0.05590
N229        N  0.07752174  0.89550523  0.43546397    -0.64450
Mn230      Mn  0.99607529  0.01103886  0.40964432     1.10660
C231        C  0.09310508  0.90464314  0.39365923     0.98530
C232        C  0.90137020  0.90514720  0.39469317     0.98600
N233        N  0.94433742  0.95860949  0.58334016    -0.06700
N234        N  0.91718412  0.94780789  0.61707441    -0.62080
N235        N  0.04801939  0.92738031  0.55137913    -0.06020
N236        N  0.07560040  0.89405592  0.56224010    -0.58810
N237        N  0.04806575  0.95752540  0.58253267    -0.07330
N238        N  0.07558442  0.94450221  0.61540768    -0.61640
N239        N  0.94335637  0.92818312  0.55262179    -0.06320
N240        N  0.91465434  0.89667605  0.56493646    -0.58830
Mn241      Mn  0.99517725  0.01153678  0.58065045     1.20190
Mn242      Mn  0.99621107  0.92763436  0.49849379     1.10090
Cl243      Cl  0.99615174  0.01264633  0.49521246    -0.86800
C244        C  0.89877944  0.90850727  0.60586532     0.95530
C245        C  0.09264705  0.90437692  0.60254252     0.95330
C246        C  0.86785037  0.87655477  0.36858172    -0.03320
C247        C  0.12300568  0.87227768  0.36564257    -0.03320
C248        C  0.12373637  0.87290829  0.63143878    -0.03320
C249        C  0.86599225  0.14062002  0.63203385    -0.03320
C250        C  0.86729550  0.87941274  0.63690565    -0.02560
C251        C  0.74523491  0.73666797  0.50437648    -0.00270
C252        C  0.76944092  0.77497967  0.50567907    -0.00270
C253        C  0.13699921  0.13325122  0.35619677    -0.03320
C254        C  0.12213981  0.14377210  0.63124135    -0.03320
C255        C  0.99623663  0.74613974  0.77938855    -0.00270
C256        C  0.99828745  0.76794991  0.73794227    -0.00270
C257        C  0.73411480  0.00986974  0.77464697    -0.00270
C258        C  0.76286271  0.01123682  0.73794198    -0.00270
C259        C  0.75246443  0.73483327  0.99878928    -0.00270
C260        C  0.73553467  0.77779150  0.99307173    -0.00270
C261        C  0.89667935  0.85092824  0.67146446    -0.06960
C262        C  0.89201917  0.80389931  0.67333958    -0.18090
C263        C  0.92581843  0.77576631  0.69024465     0.10240
C264        C  0.95760938  0.79292575  0.72049412    -0.06890
C265        C  0.95720824  0.83895266  0.72695232    -0.18120
C266        C  0.92946599  0.86819829  0.70163541     0.10270
S267        S  0.92990307  0.72262041  0.66263541    -0.33090
S268        S  0.94124001  0.92596477  0.71030726    -0.33090
H269        H  0.89812978  0.94221578  0.70140589     0.28280
H270        H  0.97195677  0.70848450  0.67990435     0.28270
H271        H  0.86448206  0.78766925  0.65707720     0.18860
H272        H  0.98218967  0.85273003  0.74908761     0.18870
C273        C  0.77561775  0.97154771  0.70940896    -0.06960
C274        C  0.78734930  0.93011465  0.72864708    -0.18090
C275        C  0.81309206  0.89848914  0.70558338     0.10240
C276        C  0.83320222  0.90982763  0.66318129    -0.06890
C277        C  0.81600202  0.94884859  0.64186546    -0.18120
C278        C  0.78567014  0.97762047  0.66320361     0.10270
S279        S  0.81447996  0.84402122  0.73185765    -0.33090
S280        S  0.75887701  0.02004421  0.62860809    -0.33090
H281        H  0.72074803  0.02462439  0.65642104     0.28280
H282        H  0.80044540  0.82292902  0.69288736     0.28270
H283        H  0.77640480  0.92130574  0.76174040     0.18860
H284        H  0.82444727  0.95602519  0.60724063     0.18870
C285        C  0.78764868  0.79408057  0.54759003    -0.06960
C286        C  0.83363825  0.78589357  0.55513964    -0.18090
C287        C  0.86082191  0.81437287  0.57875963     0.10240
C288        C  0.84016263  0.84877787  0.60479807    -0.06890
C289        C  0.79232072  0.85345457  0.60081711    -0.18120
C290        C  0.76657915  0.82832885  0.57166120     0.10270
S291        S  0.92068026  0.80019792  0.57313749    -0.33090
S292        S  0.70758489  0.84348817  0.56753052    -0.33090
H293        H  0.69225578  0.80316693  0.55218191     0.28280
H294        H  0.94138917  0.82830287  0.60324765     0.28270
H295        H  0.84982674  0.75781443  0.53975582     0.18860
H296        H  0.77345551  0.87769227  0.61937816     0.18870
C297        C  0.78909623  0.05255244  0.72540282    -0.06960
C298        C  0.76802178  0.09046509  0.70636840    -0.18090
C299        C  0.79226378  0.12217357  0.68100973     0.10240
C300        C  0.83722979  0.11162826  0.66597214    -0.06890
C301        C  0.85886533  0.07652073  0.69017567    -0.18120
C302        C  0.83633323  0.04949905  0.72120129     0.10270
S303        S  0.76478821  0.17593445  0.67295460    -0.33090
S304        S  0.86954124  0.01018183  0.75348967    -0.33090
H305        H  0.85199082  0.02423051  0.79428140     0.28280
H306        H  0.73180371  0.17069550  0.70655552     0.28270
H307        H  0.73220129  0.09484428  0.70831746     0.18860
H308        H  0.89415868  0.06984021  0.68643102     0.18870
C309        C  0.04049983  0.77758629  0.70981166    -0.06960
C310        C  0.03455661  0.78287618  0.66317294    -0.18090
C311        C  0.06224784  0.81021644  0.63650923     0.10240
C312        C  0.09403964  0.83830602  0.65730306    -0.06890
C313        C  0.10423100  0.82724359  0.70227430    -0.18120
C314        C  0.08099500  0.79496730  0.72683573     0.10270
S315        S  0.06091187  0.80166010  0.57693171    -0.33090
S316        S  0.12016602  0.76163173  0.75837756    -0.33090
H317        H  0.10567890  0.72278721  0.73772704     0.28280
H318        H  0.01791130  0.78252995  0.57508391     0.28270
H319        H  0.00762506  0.76599104  0.64701134     0.18860
H320        H  0.13605979  0.83783072  0.71597538     0.18870
C321        C  0.84172543  0.84521124  0.40213106    -0.06960
C322        C  0.79393866  0.84974300  0.40631586    -0.18090
C323        C  0.77024988  0.83006866  0.44118953     0.10240
C324        C  0.79031371  0.79427588  0.46478825    -0.06890
C325        C  0.83488012  0.78216600  0.45446732    -0.18120
C326        C  0.86249434  0.81025817  0.42890498     0.10270
S327        S  0.71502940  0.85360508  0.45307332    -0.33090
S328        S  0.92226778  0.79510817  0.43196231    -0.33090
H329        H  0.94158298  0.82461973  0.40089461     0.28280
H330        H  0.69703179  0.81707930  0.47652344     0.28270
H331        H  0.77370832  0.87091046  0.38474574     0.18860
H332        H  0.84965256  0.75242263  0.46950213     0.18870
C333        C  0.15130350  0.84055112  0.39767850    -0.06960
C334        C  0.19889844  0.83614265  0.39061547    -0.18090
C335        C  0.22774951  0.81523321  0.42141017     0.10240
C336        C  0.20899791  0.79376975  0.45906468    -0.06890
C337        C  0.16189470  0.79160894  0.46311828    -0.18120
C338        C  0.13269821  0.81394319  0.43381538     0.10270
S339        S  0.28767791  0.82125756  0.41153831    -0.33090
S340        S  0.07352509  0.80146494  0.44574330    -0.33090
H341        H  0.05117612  0.82354353  0.41048543     0.28280
H342        H  0.30229591  0.81377810  0.45555021     0.28270
H343        H  0.21544473  0.85066406  0.36174780     0.18860
H344        H  0.14754909  0.77312042  0.49121955     0.18870
C345        C  0.21944416  0.80335819  0.54010536    -0.06960
C346        C  0.20003847  0.77959820  0.57537059    -0.18090
C347        C  0.17323324  0.80029230  0.60757703     0.10240
C348        C  0.15832908  0.84617043  0.60119285    -0.06890
C349        C  0.17673948  0.86850948  0.56341439    -0.18120
C350        C  0.21075992  0.84965094  0.53742619     0.10270
S351        S  0.16351366  0.76425104  0.65526652    -0.33090
S352        S  0.24226668  0.88661525  0.50139934    -0.33090
H353        H  0.28327165  0.86373887  0.50932995     0.28280
H354        H  0.15429334  0.72577033  0.63100489     0.28270
H355        H  0.20509070  0.74402101  0.57772436     0.18860
H356        H  0.16701798  0.90260767  0.55550584     0.18870
C357        C  0.77854478  0.21800858  0.45898545    -0.06960
C358        C  0.76735541  0.22445975  0.41341215    -0.18090
C359        C  0.79308456  0.20278905  0.37974995     0.10240
C360        C  0.82274807  0.16595483  0.39216911    -0.06890
C361        C  0.82207992  0.15474630  0.43792833    -0.18120
C362        C  0.81557179  0.18902224  0.46689247     0.10270
S363        S  0.78605238  0.22375731  0.32342072    -0.33090
S364        S  0.86874538  0.21228248  0.48268709    -0.33090
H365        H  0.85378990  0.25691517  0.48090261     0.28280
H366        H  0.76529817  0.26459338  0.33388501     0.28270
H367        H  0.74054109  0.24662157  0.40308398     0.18860
H368        H  0.83679792  0.12438884  0.45152552     0.18870
C369        C  0.83492828  0.16950364  0.59974012    -0.06960
C370        C  0.79755249  0.14852830  0.58005696    -0.18090
C371        C  0.76592705  0.17193844  0.55331320     0.10240
C372        C  0.77143999  0.21794482  0.54358954    -0.06890
C373        C  0.80790306  0.23920055  0.56356133    -0.18120
C374        C  0.84213117  0.21488779  0.58611460     0.10270
S375        S  0.72179404  0.14001226  0.52850555    -0.33090
S376        S  0.89659247  0.24203944  0.58510548    -0.33090
H377        H  0.92442342  0.20445343  0.59014738     0.28280
H378        H  0.69184666  0.17603273  0.52328178     0.28270
H379        H  0.79258734  0.11325611  0.58607255     0.18860
H380        H  0.81489911  0.27319051  0.55368086     0.18870
C381        C  0.77027827  0.96313268  0.29774043    -0.06960
C382        C  0.77525709  0.96559881  0.34425866    -0.18090
C383        C  0.80948815  0.94274124  0.36689747     0.10240
C384        C  0.83357204  0.90824496  0.34449822    -0.06890
C385        C  0.82164419  0.90081863  0.29934742    -0.18120
C386        C  0.79661250  0.93195281  0.27464823     0.10270
S387        S  0.81775432  0.96000963  0.42404565    -0.33090
S388        S  0.80602491  0.93536387  0.21498164    -0.33090
H389        H  0.84093732  0.90330252  0.21283724     0.28280
H390        H  0.82852986  0.91906345  0.44448218     0.28270
H391        H  0.75527136  0.98933594  0.36265568     0.18860
H392        H  0.83474659  0.87278787  0.28141056     0.18870
C393        C  0.82476103  0.10285407  0.33504623    -0.06960
C394        C  0.77807064  0.09844038  0.34583755    -0.18090
C395        C  0.74963004  0.06987728  0.32341284     0.10240
C396        C  0.76726310  0.04408358  0.28894904    -0.06890
C397        C  0.81273378  0.04836600  0.27710926    -0.18120
C398        C  0.84228217  0.07491825  0.30047332     0.10270
S399        S  0.69309888  0.06300313  0.34483070    -0.33090
S400        S  0.90026348  0.06943376  0.28057402    -0.33090
H401        H  0.92227080  0.10170512  0.30445203     0.28280
H402        H  0.67235942  0.06697813  0.30301919     0.28270
H403        H  0.76259186  0.11620607  0.37288742     0.18860
H404        H  0.82634188  0.02728601  0.25126298     0.18870
C405        C  0.03346435  0.79174994  0.28224606    -0.06960
C406        C  0.04552187  0.83469017  0.26816823    -0.18090
C407        C  0.06727066  0.86302114  0.29755987     0.10240
C408        C  0.09187445  0.84422675  0.33469530    -0.06890
C409        C  0.08966092  0.79724957  0.33983640    -0.18120
C410        C  0.05455849  0.77377168  0.32068181     0.10270
S411        S  0.06384446  0.92191075  0.28480794    -0.33090
S412        S  0.03268420  0.72650664  0.35131496    -0.33090
H413        H  0.06733455  0.72227427  0.38329240     0.28280
H414        H  0.03918011  0.92006932  0.24480200     0.28270
H415        H  0.03274005  0.84777447  0.23672340     0.18860
H416        H  0.11109165  0.77882378  0.36261740     0.18870
C417        C  0.89419815  0.84876090  0.33310216    -0.06960
C418        C  0.88966906  0.80184668  0.33238010    -0.18090
C419        C  0.92115054  0.77518872  0.31088566     0.10240
C420        C  0.94983694  0.79495882  0.27875686    -0.06890
C421        C  0.94410024  0.84037067  0.26878643    -0.18120
C422        C  0.92078208  0.86822774  0.29785781     0.10270
S423        S  0.92056693  0.71648063  0.32521489    -0.33090
S424        S  0.92311861  0.92750290  0.28551689    -0.33090
H425        H  0.95446011  0.92652340  0.25017934     0.28280
H426        H  0.94561888  0.70181082  0.28877751     0.28270
H427        H  0.86374484  0.78463754  0.35098516     0.18860
H428        H  0.96085995  0.85463022  0.23994332     0.18870
C429        C  0.69086253  0.03866196  0.22408309    -0.06960
C430        C  0.71738270  0.07189041  0.20436481    -0.18090
C431        C  0.69853157  0.10578699  0.17776949     0.10240
C432        C  0.65196637  0.10318401  0.16457837    -0.06890
C433        C  0.62600700  0.06840372  0.18372465    -0.18120
C434        C  0.64416775  0.03809570  0.21462255     0.10270
S435        S  0.73472081  0.15336415  0.16912984    -0.33090
S436        S  0.60582699  0.99919106  0.24073184    -0.33090
H437        H  0.62771651  0.99949717  0.28230004     0.28280
H438        H  0.77483625  0.12855050  0.16326552     0.28270
H439        H  0.75348360  0.07150049  0.20937914     0.18860
H440        H  0.59013429  0.06663695  0.17678805     0.18870
C441        C  0.71016277  0.96931046  0.79207610    -0.06960
C442        C  0.66429075  0.96535489  0.78080046    -0.18090
C443        C  0.63431194  0.93900826  0.80638357     0.10240
C444        C  0.65084196  0.91205650  0.84298462    -0.06890
C445        C  0.69483071  0.92229626  0.85747578    -0.18120
C446        C  0.72542013  0.94622051  0.83101465     0.10270
S447        S  0.57573427  0.94425465  0.79056619    -0.33090
S448        S  0.78371490  0.94318886  0.84894678    -0.33090
H449        H  0.80184423  0.96950857  0.81449859     0.28280
H450        H  0.55633683  0.93467031  0.83222775     0.28270
H451        H  0.65085822  0.98568133  0.75344056     0.18860
H452        H  0.70674539  0.91014478  0.88946672     0.18870
C453        C  0.65038326  0.84040710  0.89706427    -0.06960
C454        C  0.69439761  0.82930420  0.88212037    -0.18090
C455        C  0.72619177  0.81406176  0.91342849     0.10240
C456        C  0.71040498  0.78812239  0.95056917    -0.06890
C457        C  0.66399666  0.78196608  0.95439671    -0.18120
C458        C  0.63465813  0.81324814  0.93450108     0.10270
S459        S  0.78065259  0.84121376  0.90919533    -0.33090
S460        S  0.58463797  0.82155155  0.96807248    -0.33090
H461        H  0.57645736  0.77605688  0.97646922     0.28280
H462        H  0.79429735  0.83274841  0.95358735     0.28270
H463        H  0.70687069  0.84154901  0.85028901     0.18860
H464        H  0.65188040  0.76155200  0.98220916     0.18870
C465        C  0.59206949  0.84777866  0.83869165    -0.06960
C466        C  0.55681705  0.82269246  0.85809000    -0.18090
C467        C  0.53068458  0.79369910  0.83432369     0.10240
C468        C  0.53284405  0.79472776  0.78751931    -0.06890
C469        C  0.56976457  0.81596489  0.76703919    -0.18120
C470        C  0.60190187  0.83809667  0.79287649     0.10270
S471        S  0.49351569  0.75744101  0.86598326    -0.33090
S472        S  0.65592771  0.84687738  0.76650507    -0.33090
H473        H  0.67079935  0.80341800  0.77771102     0.28280
H474        H  0.48990663  0.72540840  0.83266317     0.28270
H475        H  0.54893419  0.82383870  0.89249821     0.18860
H476        H  0.57397200  0.81509625  0.73112724     0.18870
C477        C  0.38970363  0.84990414  0.84122902    -0.06960
C478        C  0.42596464  0.87237320  0.82011753    -0.18090
C479        C  0.45209189  0.85255329  0.78645773     0.10240
C480        C  0.44962036  0.80613455  0.77898368    -0.06890
C481        C  0.41184865  0.78443231  0.79723674    -0.18120
C482        C  0.37853075  0.80819216  0.82099999     0.10270
S483        S  0.48647757  0.88869527  0.75225340    -0.33090
S484        S  0.32277344  0.78414425  0.81991638    -0.33090
H485        H  0.29837417  0.82257552  0.83083959     0.28280
H486        H  0.49053895  0.85949223  0.71642545     0.28270
H487        H  0.43163059  0.90705313  0.82712594     0.18860
H488        H  0.40724416  0.74929014  0.79220171     0.18870
C489        C  0.66383767  0.84516114  0.09674331    -0.06960
C490        C  0.66281364  0.85913679  0.05149850    -0.18090
C491        C  0.69672931  0.84731956  0.02228953     0.10240
C492        C  0.72402164  0.80942291  0.03134675    -0.06890
C493        C  0.72819825  0.79761065  0.07700805    -0.18120
C494        C  0.69790448  0.81346183  0.10934296     0.10270
S495        S  0.71076581  0.88943191  0.98130016    -0.33090
S496        S  0.70244281  0.79014136  0.16541197    -0.33090
H497        H  0.73359654  0.75582858  0.15639709     0.28280
H498        H  0.75681147  0.88840502  0.99288002     0.28270
H499        H  0.63994517  0.88457679  0.03917867     0.18860
H500        H  0.75584794  0.77762787  0.08891746     0.18870
C501        C  0.66715403  0.89584083  0.16064270    -0.06960
C502        C  0.67580290  0.88504064  0.20646018    -0.18090
C503        C  0.68917719  0.91719162  0.23652342     0.10240
C504        C  0.70481516  0.95799210  0.21910481    -0.06890
C505        C  0.71061542  0.96262314  0.17276022    -0.18120
C506        C  0.69269696  0.93249455  0.14335382     0.10270
S507        S  0.68172282  0.90413335  0.29529545    -0.33090
S508        S  0.70850411  0.94121410  0.08551362    -0.33090
H509        H  0.71435481  0.98757105  0.08684949     0.28280
H510        H  0.67918713  0.94793630  0.31019819     0.28270
H511        H  0.66888541  0.85266123  0.22073572     0.18860
H512        H  0.72863052  0.99119162  0.15946666     0.18870
C513        C  0.65627215  0.10970100  0.84301269    -0.06960
C514        C  0.68792297  0.08135171  0.86528849    -0.18090
C515        C  0.72093898  0.05793390  0.84209425     0.10240
C516        C  0.71576952  0.05093228  0.79605342    -0.06890
C517        C  0.68145778  0.07505742  0.77394828    -0.18120
C518        C  0.65800216  0.10960678  0.79495136     0.10270
S519        S  0.77208982  0.04530605  0.87179600    -0.33090
S520        S  0.63863146  0.15471736  0.75834998    -0.33090
H521        H  0.65254156  0.13677891  0.71746501     0.28280
H522        H  0.79899860  0.05705301  0.83486952     0.28270
H523        H  0.69178547  0.08299413  0.90117766     0.18860
H524        H  0.67362885  0.06765464  0.73963855     0.18870
C525        C  0.44245164  0.22100073  0.79566544    -0.06960
C526        C  0.43909324  0.22581791  0.84176861    -0.18090
C527        C  0.41000767  0.20054273  0.86830515     0.10240
C528        C  0.38130573  0.16795995  0.84828442    -0.06890
C529        C  0.38135162  0.16787491  0.80063246    -0.18120
C530        C  0.41282127  0.19171091  0.77467147     0.10270
S531        S  0.41280335  0.21609604  0.92646493    -0.33090
S532        S  0.41497326  0.18023238  0.71575416    -0.33090
H533        H  0.46096486  0.18953220  0.70931028     0.28280
H534        H  0.38041303  0.18818838  0.94390939     0.28270
H535        H  0.46161181  0.24879370  0.85783952     0.18860
H536        H  0.35801985  0.14788338  0.78237582     0.18870
C537        C  0.52569772  0.21759583  0.79380215    -0.06960
C538        C  0.52629055  0.17094892  0.79320401    -0.18090
C539        C  0.55559734  0.14523263  0.81970906     0.10240
C540        C  0.59057953  0.16657755  0.84410922    -0.06890
C541        C  0.59253567  0.21375352  0.84034620    -0.18120
C542        C  0.55817840  0.23915368  0.81960541     0.10270
S543        S  0.54403585  0.08594210  0.81900691    -0.33090
S544        S  0.55412833  0.29805987  0.83002878    -0.33090
H545        H  0.58951820  0.29980664  0.86125821     0.28280
H546        H  0.58497498  0.06721385  0.83316697     0.28270
H547        H  0.50092981  0.15396749  0.77409677     0.18860
H548        H  0.61971590  0.23162902  0.85542455     0.18870
C549        C  0.46784390  0.78430821  0.21417877    -0.06960
C550        C  0.43017029  0.76275112  0.19735059    -0.18090
C551        C  0.39353544  0.78772886  0.18146651     0.10240
C552        C  0.40066562  0.83194177  0.16457293    -0.06890
C553        C  0.43957206  0.85321373  0.17949943    -0.18120
C554        C  0.46868179  0.83162618  0.20962788     0.10270
S555        S  0.34010255  0.76699743  0.20087289    -0.33090
S556        S  0.49292868  0.86661063  0.25107913    -0.33090
H557        H  0.49600291  0.90526863  0.22386564     0.28280
H558        H  0.31708572  0.80760498  0.20295910     0.28270
H559        H  0.42653242  0.72717353  0.20159801     0.18860
H560        H  0.44277358  0.88870602  0.17377268     0.18870
C561        C  0.55139136  0.77297579  0.21189871    -0.06960
C562        C  0.55737267  0.76646658  0.16585013    -0.18090
C563        C  0.58483000  0.79453553  0.13918380     0.10240
C564        C  0.60364548  0.83371539  0.15791228    -0.06890
C565        C  0.59105255  0.84184991  0.20254168    -0.18120
C566        C  0.57446767  0.80828357  0.23081435     0.10270
S567        S  0.58828518  0.78209716  0.08050117    -0.33090
S568        S  0.58069452  0.81477931  0.29028718    -0.33090
H569        H  0.53749623  0.79989747  0.30191723     0.28280
H570        H  0.57591267  0.73712231  0.08460918     0.28270
H571        H  0.53742519  0.74141389  0.14985354     0.18860
H572        H  0.59566204  0.87412088  0.21686334     0.18870
C573        C  0.14941851  0.90522440  0.66327829    -0.06960
C574        C  0.18864926  0.92727479  0.64745578    -0.18090
C575        C  0.21001874  0.96017307  0.67138874     0.10240
C576        C  0.19829964  0.96631107  0.71654997    -0.06890
C577        C  0.16245473  0.94184848  0.73430493    -0.18120
C578        C  0.13307974  0.91974439  0.70597934     0.10270
S579        S  0.24895200  0.99497608  0.63995691    -0.33090
S580        S  0.07508528  0.91775696  0.72641722    -0.33090
H581        H  0.05275688  0.90792132  0.68682244     0.28280
H582        H  0.27237542  0.01233423  0.67608246     0.28270
H583        H  0.20213446  0.92254483  0.61486792     0.18860
H584        H  0.15272535  0.94623780  0.76874591     0.18870
C585        C  0.19107250  0.04843530  0.72408318    -0.06960
C586        C  0.21690918  0.08071254  0.70197686    -0.18090
C587        C  0.19687030  0.11371991  0.67419750     0.10240
C588        C  0.14904452  0.11228629  0.66471642    -0.06890
C589        C  0.12351470  0.08326398  0.69209814    -0.18120
C590        C  0.14333741  0.05306715  0.72223912     0.10270
S591        S  0.23256946  0.16039741  0.65966797    -0.33090
S592        S  0.10458061  0.02555436  0.76006992    -0.33090
H593        H  0.13639787  0.01329853  0.79276277     0.28280
H594        H  0.27460263  0.13919155  0.66708415     0.28270
H595        H  0.25316208  0.07999840  0.70649317     0.18860
H596        H  0.08704083  0.08602014  0.69212771     0.18870
C597        C  0.27222405  0.04271337  0.79078609    -0.06960
C598        C  0.31992212  0.04191911  0.79114498    -0.18090
C599        C  0.34550527  0.07000846  0.81841819     0.10240
C600        C  0.32344676  0.10344446  0.84395627    -0.06890
C601        C  0.27601711  0.10776329  0.83777294    -0.18120
C602        C  0.25036693  0.07607452  0.81561826     0.10270
S603        S  0.40636829  0.06254774  0.81920017    -0.33090
S604        S  0.19018109  0.07679902  0.82462865    -0.33090
H605        H  0.18886467  0.10756865  0.85935741     0.28280
H606        H  0.40820556  0.02236804  0.79603844     0.28270
H607        H  0.33734674  0.01707062  0.77181920     0.18860
H608        H  0.25750354  0.13502435  0.85202122     0.18870
C609        C  0.26371346  0.95897905  0.79020595    -0.06960
C610        C  0.25499709  0.95189531  0.83562134    -0.18090
C611        C  0.29123752  0.93843759  0.86292729     0.10240
C612        C  0.32454195  0.90731915  0.84648110    -0.06890
C613        C  0.32471400  0.90478531  0.79877226    -0.18120
C614        C  0.29865248  0.93337542  0.77123143     0.10270
S615        S  0.30542454  0.98770586  0.89294118    -0.33090
S616        S  0.31277786  0.93757478  0.71287317    -0.33090
H617        H  0.35578019  0.91720090  0.71558414     0.28280
H618        H  0.34600083  0.99350904  0.86908661     0.28270
H619        H  0.22854590  0.97233189  0.85023951     0.18860
H620        H  0.34687930  0.88273239  0.78120764     0.18870
C621        C  0.03849136  0.72859732  0.21055889    -0.06960
C622        C  0.05773684  0.74344155  0.17032124    -0.18090
C623        C  0.07977097  0.71289059  0.14231404     0.10240
C624        C  0.09864975  0.67236779  0.16189666    -0.06890
C625        C  0.09341660  0.66919820  0.20912179    -0.18120
C626        C  0.05657059  0.68950023  0.22984394     0.10270
S627        S  0.08272118  0.73228183  0.08455042    -0.33090
S628        S  0.02760172  0.65876787  0.27323480    -0.33090
H629        H  0.06477906  0.63213394  0.28666283     0.28280
H630        H  0.10449914  0.69702799  0.06513015     0.28270
H631        H  0.04894172  0.77631977  0.15758021     0.18860
H632        H  0.11398359  0.64792247  0.22997064     0.18870
C633        C  0.83444201  0.67173688  0.09829292    -0.06960
C634        C  0.78681802  0.67244935  0.10475027    -0.18090
C635        C  0.75758598  0.69432162  0.07459972     0.10240
C636        C  0.77628616  0.72022041  0.03953312    -0.06890
C637        C  0.82224801  0.72703300  0.03805476    -0.18120
C638        C  0.85163792  0.70163177  0.06393936     0.10270
S639        S  0.69742313  0.68851119  0.08347761    -0.33090
S640        S  0.90943194  0.71009620  0.04699172    -0.33090
H641        H  0.90135553  0.71256869  0.00057428     0.28280
H642        H  0.68280112  0.71711844  0.04863500     0.28270
H643        H  0.77138650  0.65480629  0.13250710     0.18860
H644        H  0.83556155  0.74954731  0.01247435     0.18870
C645        C  0.89539216  0.67492758  0.15395935    -0.06960
C646        C  0.94052116  0.68201886  0.14022557    -0.18090
C647        C  0.96249083  0.71980772  0.15384556     0.10240
C648        C  0.95348740  0.73501816  0.19654230    -0.06890
C649        C  0.90808373  0.73133772  0.21028364    -0.18120
C650        C  0.87780266  0.70472560  0.18666702     0.10270
S651        S  0.97552034  0.76079601  0.11084844    -0.33090
S652        S  0.81845636  0.70752023  0.20142217    -0.33090
H653        H  0.82042694  0.74602020  0.22719386     0.28280
H654        H  0.97265175  0.79787720  0.13873421     0.28270
H655        H  0.95542994  0.66473583  0.11258922     0.18860
H656        H  0.89503445  0.74865719  0.23816863     0.18870
C657        C  0.83002669  0.40672425  0.84255491    -0.06960
C658        C  0.85456915  0.43610378  0.81432524    -0.18090
C659        C  0.83426725  0.46168018  0.78057374     0.10240
C660        C  0.78661445  0.46534693  0.77856854    -0.06890
C661        C  0.76135872  0.43621779  0.80515310    -0.18120
C662        C  0.78148922  0.40618005  0.83578321     0.10270
S663        S  0.87199495  0.47973189  0.73632732    -0.33090
S664        S  0.74218130  0.36536024  0.85772426    -0.33090
H665        H  0.70399795  0.39365219  0.85937347     0.28280
H666        H  0.83866187  0.49163194  0.70497956     0.28270
H667        H  0.89109652  0.43383659  0.81346860     0.18860
H668        H  0.72503447  0.43643945  0.80140941     0.18870
C669        C  0.09910582  0.66338371  0.84292018    -0.06960
C670        C  0.09262758  0.70808674  0.85581379    -0.18090
C671        C  0.06157708  0.73682827  0.83451308     0.10240
C672        C  0.03507285  0.72104593  0.79901515    -0.06890
C673        C  0.03983495  0.67665502  0.78677220    -0.18120
C674        C  0.07037853  0.64752613  0.80830760     0.10270
S675        S  0.06413135  0.79482858  0.84937490    -0.33090
S676        S  0.07151551  0.59040584  0.78997491    -0.33090
H677        H  0.03157921  0.59194320  0.76452251     0.28280
H678        H  0.04059412  0.81240768  0.81219369     0.28270
H679        H  0.11119376  0.72153439  0.88330929     0.18860
H680        H  0.01844127  0.66457417  0.76044122     0.18870
C681        C  0.76753951  0.70733135  0.95974648    -0.06960
C682        C  0.79104191  0.72933669  0.92617943    -0.18090
C683        C  0.81106696  0.70832737  0.89088198     0.10240
C684        C  0.82353201  0.66258225  0.89639868    -0.06890
C685        C  0.80372467  0.63960206  0.93351742    -0.18120
C686        C  0.77177758  0.66039752  0.96136971     0.10270
S687        S  0.81828483  0.74393135  0.84190441    -0.33090
S688        S  0.73647143  0.62664109  0.99721138    -0.33090
H689        H  0.75221095  0.58502221  0.98280968     0.28280
H690        H  0.77717764  0.76723984  0.84690000     0.28270
H691        H  0.79782716  0.76326713  0.92929566     0.18860
H692        H  0.81052036  0.60436527  0.93833438     0.18870
C693        C  0.88688482  0.67261390  0.84029636    -0.06960
C694        C  0.91453854  0.70028920  0.86630508    -0.18090
C695        C  0.94335877  0.73188922  0.84661392     0.10240
C696        C  0.95218526  0.73099139  0.80016602    -0.06890
C697        C  0.92431233  0.70399529  0.77522177    -0.18120
C698        C  0.88718428  0.68228717  0.79336181     0.10270
S699        S  0.96309162  0.77483593  0.88190869    -0.33090
S700        S  0.84077644  0.67631994  0.75440479    -0.33090
H701        H  0.80585538  0.67344410  0.78608030     0.28280
H702        H  0.96487769  0.80680380  0.84685494     0.28270
H703        H  0.91085054  0.70012505  0.90226921     0.18860
H704        H  0.93222939  0.69748087  0.74172524     0.18870
C705        C  0.83118051  0.60523579  0.83390291    -0.06960
C706        C  0.78596521  0.59320014  0.84425961    -0.18090
C707        C  0.76365527  0.55984384  0.82204921     0.10240
C708        C  0.77905492  0.54741407  0.77942567    -0.06890
C709        C  0.82006608  0.56538846  0.76467539    -0.18120
C710        C  0.84977733  0.58521122  0.79477996     0.10270
S711        S  0.72161013  0.53079301  0.85518637    -0.33090
S712        S  0.90890522  0.58351470  0.77788459    -0.33090
H713        H  0.92982444  0.60335823  0.81396896     0.28280
H714        H  0.70422241  0.50395640  0.82222940     0.28270
H715        H  0.76768835  0.60580110  0.87215548     0.18860
H716        H  0.83178666  0.55883299  0.73134457     0.18870
C717        C  0.22616718  0.54153789  0.80326352    -0.06960
C718        C  0.20724743  0.57790987  0.77994020    -0.18090
C719        C  0.17860856  0.60894017  0.79986795     0.10240
C720        C  0.16262250  0.60124629  0.84471951    -0.06890
C721        C  0.18310996  0.56527323  0.86844382    -0.18120
C722        C  0.21593928  0.53753372  0.84938153     0.10270
S723        S  0.16473055  0.65477208  0.76237929    -0.33090
S724        S  0.24305403  0.49687786  0.88576012    -0.33090
H725        H  0.28291371  0.49449929  0.86016294     0.28280
H726        H  0.16647528  0.68825860  0.79338535     0.28270
H727        H  0.21269843  0.58192022  0.74488132     0.18860
H728        H  0.17354485  0.55846007  0.90261158     0.18870
C729        C  0.15090773  0.40704572  0.83152948    -0.06960
C730        C  0.19687785  0.39357536  0.82653597    -0.18090
C731        C  0.22934235  0.42170262  0.80710029     0.10240
C732        C  0.21482717  0.46161039  0.78599141    -0.06890
C733        C  0.16852644  0.46853540  0.77976156    -0.18120
C734        C  0.13637309  0.44256942  0.80191636     0.10270
S735        S  0.28838898  0.40751845  0.81325683    -0.33090
S736        S  0.07863327  0.45826882  0.78979672    -0.33090
H737        H  0.08609836  0.47997206  0.74829421     0.28280
H738        H  0.28304344  0.36900028  0.84020747     0.28270
H739        H  0.20840668  0.36197955  0.84035270     0.18860
H740        H  0.15744522  0.49775327  0.76077101     0.18870
C741        C  0.80015497  0.54626748  0.22379389    -0.06960
C742        C  0.78668471  0.54920731  0.17886312    -0.18090
C743        C  0.80710011  0.57769225  0.14758971     0.10240
C744        C  0.83941983  0.60941672  0.16202241    -0.06890
C745        C  0.85195210  0.60664745  0.20784025    -0.18120
C746        C  0.83226249  0.57703462  0.23869563     0.10270
S747        S  0.79051973  0.56732032  0.09032510    -0.33090
S748        S  0.85077038  0.58206891  0.29576571    -0.33090
H749        H  0.82954674  0.54472433  0.31300053     0.28280
H750        H  0.81888084  0.59514978  0.06553482     0.28270
H751        H  0.76155213  0.52642424  0.16697254     0.18860
H752        H  0.87900946  0.62646629  0.22055125     0.18870
C753        C  0.84065156  0.40164131  0.16634768    -0.06960
C754        C  0.86722888  0.42400217  0.19767041    -0.18090
C755        C  0.84923274  0.45407173  0.22752671     0.10240
C756        C  0.80255241  0.46400760  0.22704371    -0.06890
C757        C  0.77524378  0.44275373  0.19598232    -0.18120
C758        C  0.79378236  0.41398462  0.16422169     0.10270
S759        S  0.88868985  0.47849740  0.26524681    -0.33090
S760        S  0.75669101  0.40241970  0.11855604    -0.33090
H761        H  0.78825114  0.41691749  0.08625567     0.28280
H762        H  0.85974838  0.47638423  0.30223457     0.28270
H763        H  0.90306690  0.41645660  0.20014998     0.18860
H764        H  0.73992850  0.45245615  0.19335776     0.18870
C765        C  0.03004778  0.23392482  0.70443116    -0.06960
C766        C  0.05851894  0.20341404  0.72599273    -0.18090
C767        C  0.09441399  0.18298252  0.70487725     0.10240
C768        C  0.09321461  0.17841741  0.65764462    -0.06890
C769        C  0.06152344  0.20627646  0.63456952    -0.18120
C770        C  0.03350293  0.23655717  0.65726655     0.10270
S771        S  0.14230607  0.17264478  0.74083707    -0.33090
S772        S  0.00449916  0.27811212  0.62428182    -0.33090
H773        H  0.01292789  0.31153287  0.65533473     0.28280
H774        H  0.16909383  0.20264302  0.71604282     0.28270
H775        H  0.05046980  0.19192779  0.75883863     0.18860
H776        H  0.06056900  0.20664097  0.59842646     0.18870
C777        C  0.94761744  0.22392900  0.71988212    -0.06960
C778        C  0.95448754  0.17779071  0.72047371    -0.18090
C779        C  0.93644571  0.15253858  0.68635525     0.10240
C780        C  0.89590042  0.16800846  0.66430368    -0.06890
C781        C  0.87851200  0.20874996  0.67987227    -0.18120
C782        C  0.90774611  0.23974504  0.69784303     0.10270
S783        S  0.97185288  0.10623194  0.67024718    -0.33090
S784        S  0.89435581  0.29582527  0.68012336    -0.33090
H785        H  0.93885527  0.30974020  0.67577355     0.28280
H786        H  0.01263632  0.12093309  0.68855579     0.28270
H787        H  0.98148035  0.16348532  0.74055083     0.18860
H788        H  0.84548319  0.22051330  0.66980276     0.18870
C789        C  0.95412938  0.28827407  0.79695617    -0.06960
C790        C  0.92729924  0.32057916  0.77569676    -0.18090
C791        C  0.89182841  0.34221800  0.79657181     0.10240
C792        C  0.89146843  0.34440687  0.84431756    -0.06890
C793        C  0.92159037  0.31457331  0.86704080    -0.18120
C794        C  0.94971046  0.28460530  0.84399789     0.10270
S795        S  0.84611908  0.35607833  0.75840223    -0.33090
S796        S  0.97718607  0.24165044  0.87650689    -0.33090
H797        H  0.96937774  0.20931603  0.84416273     0.28280
H798        H  0.81124622  0.33998410  0.78570298     0.28270
H799        H  0.93579699  0.33169637  0.74273839     0.18860
H800        H  0.92069899  0.31203983  0.90311431     0.18870
C801        C  0.03709204  0.29631298  0.78126468    -0.06960
C802        C  0.03091132  0.34254403  0.78056791    -0.18090
C803        C  0.04720317  0.36547666  0.81666794     0.10240
C804        C  0.08951142  0.35186429  0.83555494    -0.06890
C805        C  0.10734736  0.31145421  0.81966814    -0.18120
C806        C  0.07732245  0.28015177  0.80310079     0.10270
S807        S  0.00433176  0.39905549  0.84274962    -0.33090
S808        S  0.08917689  0.22469856  0.82416921    -0.33090
H809        H  0.04442856  0.21109470  0.82648415     0.28280
H810        H  0.00434687  0.37283814  0.88221468     0.28270
H811        H  0.00335895  0.35762611  0.76194415     0.18860
H812        H  0.14095166  0.30048420  0.82937800     0.18870
C813        C  0.66039312  0.16362972  0.10424026    -0.06960
C814        C  0.68936776  0.13858693  0.07655122    -0.18090
C815        C  0.72316335  0.15860036  0.05109393     0.10240
C816        C  0.72298177  0.20510745  0.04479979    -0.06890
C817        C  0.69257778  0.23031942  0.07011847    -0.18120
C818        C  0.66787208  0.21060586  0.10494584     0.10270
S819        S  0.76771253  0.12319366  0.03149635    -0.33090
S820        S  0.65908070  0.24430924  0.15384329    -0.33090
H821        H  0.68043198  0.28311127  0.13774282     0.28280
H822        H  0.80121184  0.15530393  0.03798222     0.28270
H823        H  0.68914274  0.10262402  0.07858416     0.18860
H824        H  0.69188954  0.26616054  0.06548845     0.18870
C825        C  0.65606295  0.17143560  0.90183886    -0.06960
C826        C  0.70368147  0.17108793  0.89623044    -0.18090
C827        C  0.73266419  0.18400935  0.93004247     0.10240
C828        C  0.71606690  0.21294956  0.96315638    -0.06890
C829        C  0.66950783  0.22283265  0.96298501    -0.18120
C830        C  0.63910997  0.20015241  0.93575654     0.10270
S831        S  0.78813300  0.15748239  0.92942204    -0.33090
S832        S  0.57955560  0.21120015  0.94475415    -0.33090
H833        H  0.58322218  0.22874583  0.98778572     0.28280
H834        H  0.80742803  0.18077340  0.96459446     0.28270
H835        H  0.71965437  0.15662486  0.86750715     0.18860
H836        H  0.65638212  0.24581080  0.98724036     0.18870
C837        C  0.83558161  0.34082602  0.10401716    -0.06960
C838        C  0.84471771  0.34088739  0.05777806    -0.18090
C839        C  0.83746932  0.30298835  0.03339220     0.10240
C840        C  0.79938201  0.27724727  0.04337342    -0.06890
C841        C  0.78616577  0.27707640  0.08859622    -0.18120
C842        C  0.80573359  0.30621482  0.11943408     0.10270
S843        S  0.87777761  0.28707980  0.99118179    -0.33090
S844        S  0.78869159  0.29932402  0.17687409    -0.33090
H845        H  0.77363005  0.25519917  0.17460718     0.28280
H846        H  0.91106849  0.31757804  0.00339068     0.28270
H847        H  0.86001555  0.36816897  0.03998068     0.18860
H848        H  0.76264444  0.25353534  0.10143707     0.18870
C849        C  0.82858963  0.34459079  0.90250503    -0.06960
C850        C  0.80524214  0.36442906  0.93852761    -0.18090
C851        C  0.77584582  0.33963487  0.96618000     0.10240
C852        C  0.77512391  0.29277295  0.96308655    -0.06890
C853        C  0.79388884  0.27461368  0.92505100    -0.18120
C854        C  0.81740692  0.29933696  0.89332645     0.10270
S855        S  0.74259335  0.36863380  0.00689905    -0.33090
S856        S  0.82858517  0.26984959  0.84212645    -0.33090
H857        H  0.79339926  0.23879446  0.84612820     0.28280
H858        H  0.71341756  0.33302558  0.01650132     0.28270
H859        H  0.80841355  0.39975422  0.94391100     0.18860
H860        H  0.79428662  0.24025324  0.92112097     0.18870
C861        C  0.22398576  0.70197756  0.04728581    -0.06960
C862        C  0.19973000  0.72578899  0.07930745    -0.18090
C863        C  0.17954313  0.70305421  0.11514062     0.10240
C864        C  0.16533461  0.65830962  0.10898387    -0.06890
C865        C  0.18926115  0.63446182  0.07608337    -0.18120
C866        C  0.22309781  0.65498987  0.05009850     0.10270
S867        S  0.18028944  0.73080446  0.16810399    -0.33090
S868        S  0.26004283  0.62109105  0.01684531    -0.33090
H869        H  0.29464044  0.65272880  0.01415494     0.28280
H870        H  0.18589372  0.69102055  0.19328243     0.28270
H871        H  0.20087677  0.76179492  0.07905269     0.18860
H872        H  0.18355655  0.59916297  0.07278284     0.18870
C873        C  0.16055597  0.65627637  0.90528639    -0.06960
C874        C  0.19271394  0.68755359  0.88978536    -0.18090
C875        C  0.21338910  0.71800321  0.91851749     0.10240
C876        C  0.20466426  0.71528811  0.96541161    -0.06890
C877        C  0.16637145  0.68980583  0.97707176    -0.18120
C878        C  0.15444684  0.65381862  0.95193007     0.10270
S879        S  0.22703608  0.76931461  0.89011985    -0.33090
S880        S  0.14599494  0.60215054  0.98301928    -0.33090
H881        H  0.18754654  0.58396675  0.96950294     0.28280
H882        H  0.20373910  0.79547274  0.92128813     0.28270
H883        H  0.19912782  0.69122999  0.85465463     0.18860
H884        H  0.15253225  0.69020158  0.01016575     0.18870
C885        C  0.30710699  0.75758819  0.04461291    -0.06960
C886        C  0.35290676  0.76853118  0.03929909    -0.18090
C887        C  0.37465358  0.79615431  0.06969529     0.10240
C888        C  0.34786742  0.82073726  0.10127701    -0.06890
C889        C  0.30322712  0.80487496  0.10774949    -0.18120
C890        C  0.28981095  0.76557780  0.08714024     0.10270
S891        S  0.43562801  0.79160480  0.07064322    -0.33090
S892        S  0.29029850  0.71748937  0.12473952    -0.33090
H893        H  0.30643809  0.68652082  0.09372260     0.28280
H894        H  0.44110037  0.78315535  0.02482628     0.28270
H895        H  0.37208933  0.75461257  0.01225240     0.18860
H896        H  0.28313582  0.81613969  0.13552878     0.18870
C897        C  0.33501150  0.84338389  0.91024145    -0.06960
C898        C  0.35177868  0.79899393  0.91537790    -0.18090
C899        C  0.32799932  0.76560301  0.93827427     0.10240
C900        C  0.29119391  0.77726123  0.96535419    -0.06890
C901        C  0.27847092  0.82188938  0.96716957    -0.18120
C902        C  0.30057773  0.85501186  0.94206762     0.10270
S903        S  0.34807747  0.70897810  0.93430807    -0.33090
S904        S  0.28947355  0.90999461  0.96166199    -0.33090
H905        H  0.28052230  0.89837304  0.00667550     0.28280
H906        H  0.30567321  0.68972048  0.94225514     0.28270
H907        H  0.38376738  0.78909637  0.90118407     0.18860
H908        H  0.25280719  0.83118839  0.99128061     0.18870
C909        C  0.18901068  0.45570870  0.24514759    -0.06960
C910        C  0.21491987  0.42373814  0.22269219    -0.18090
C911        C  0.19380160  0.39247707  0.19525485     0.10240
C912        C  0.14832911  0.40060190  0.18013358    -0.06890
C913        C  0.12281877  0.42893017  0.20745558    -0.18120
C914        C  0.14164840  0.45133307  0.24285903     0.10270
S915        S  0.22451990  0.34127888  0.18714150    -0.33090
S916        S  0.10325896  0.46689988  0.28699137    -0.33090
H917        H  0.13598695  0.48469335  0.31509152     0.28280
H918        H  0.19172448  0.31601612  0.20994252     0.28270
H919        H  0.25117638  0.42212224  0.22731694     0.18860
H920        H  0.08726520  0.43263831  0.20340800     0.18870
C921        C  0.14823698  0.59897972  0.16965033    -0.06960
C922        C  0.19528887  0.58768251  0.16738754    -0.18090
C923        C  0.21471862  0.55302658  0.19302914     0.10240
C924        C  0.19263576  0.53837017  0.23234965    -0.06890
C925        C  0.14832477  0.55358237  0.23860284    -0.18120
C926        C  0.12388273  0.57475233  0.20397060     0.10270
S927        S  0.26547212  0.52762304  0.17037040    -0.33090
S928        S  0.06290894  0.56973885  0.21045185    -0.33090
H929        H  0.04708005  0.60294480  0.18081806     0.28280
H930        H  0.27595120  0.49790672  0.20554248     0.28270
H931        H  0.21835346  0.60314546  0.14440352     0.18860
H932        H  0.13099370  0.54578161  0.26923418     0.18870
C933        C  0.21278767  0.20577472  0.53316608    -0.06960
C934        C  0.21469726  0.16016197  0.54330561    -0.18090
C935        C  0.18316706  0.13944484  0.57063503     0.10240
C936        C  0.15450579  0.16600014  0.59751408    -0.06890
C937        C  0.15692221  0.21289950  0.59180263    -0.18120
C938        C  0.18224515  0.23250027  0.55733065     0.10270
S939        S  0.18257247  0.07899527  0.57188979    -0.33090
S940        S  0.17112214  0.29067400  0.54535815    -0.33090
H941        H  0.18420630  0.29057879  0.50036875     0.28280
H942        H  0.21140985  0.07220406  0.53515683     0.28270
H943        H  0.24040683  0.13984961  0.52892042     0.18860
H944        H  0.13781977  0.23516508  0.61250224     0.18870
C945        C  0.22295470  0.20071615  0.45113313    -0.06960
C946        C  0.19241800  0.22519528  0.42465835    -0.18090
C947        C  0.17455189  0.20627952  0.38661202     0.10240
C948        C  0.16953546  0.15891258  0.38643823    -0.06890
C949        C  0.19749819  0.13384353  0.41595806    -0.18120
C950        C  0.22947028  0.15518152  0.44204853     0.10270
S951        S  0.17260829  0.24186760  0.33671818    -0.33090
S952        S  0.28106630  0.12524854  0.45533727    -0.33090
H953        H  0.30592153  0.16347848  0.46448367     0.28280
H954        H  0.18564728  0.28170265  0.35661504     0.28270
H955        H  0.18891545  0.26063571  0.42948293     0.18860
H956        H  0.19884411  0.09792801  0.41373024     0.18870
C957        C  0.53196929  0.22266605  0.20703754    -0.06960
C958        C  0.55006779  0.18460830  0.22747210    -0.18090
C959        C  0.58692997  0.16305551  0.20887203     0.10240
C960        C  0.59416141  0.16681334  0.16145341    -0.06890
C961        C  0.56965299  0.20111004  0.13871695    -0.18120
C962        C  0.54531573  0.23294527  0.16266797     0.10270
S963        S  0.62678105  0.14348026  0.25060219    -0.33090
S964        S  0.53882726  0.28755082  0.13725388    -0.33090
H965        H  0.53851283  0.30962150  0.17811017     0.28280
H966        H  0.66133674  0.17073023  0.23350651     0.28270
H967        H  0.53816201  0.17367584  0.25991135     0.18860
H968        H  0.57539116  0.20724765  0.10335691     0.18870
C969        C  0.38979658  0.17015154  0.15864700    -0.06960
C970        C  0.38836682  0.16933611  0.20617873    -0.18090
C971        C  0.41938879  0.19347962  0.23186234     0.10240
C972        C  0.44752321  0.22540601  0.21058079    -0.06890
C973        C  0.44006031  0.23394412  0.16535463    -0.18120
C974        C  0.41616765  0.20520298  0.13863036     0.10270
S975        S  0.42086624  0.18133014  0.29095094    -0.33090
S976        S  0.42494811  0.21492936  0.07937891    -0.33090
H977        H  0.43040108  0.26134293  0.08058169     0.28280
H978        H  0.46730725  0.18736674  0.29525787     0.28270
H979        H  0.36554606  0.14750117  0.22400979     0.18860
H980        H  0.45719222  0.26121430  0.14951185     0.18870
C981        C  0.03461396  0.27512510  0.20617211    -0.06960
C982        C  0.02666802  0.32050936  0.21285164    -0.18090
C983        C  0.04871441  0.35271857  0.18702429     0.10240
C984        C  0.09135607  0.34184860  0.16671616    -0.06890
C985        C  0.10580036  0.29690070  0.17253927    -0.18120
C986        C  0.07492798  0.26342965  0.18348103     0.10270
S987        S  0.01399563  0.40140650  0.17455657    -0.33090
S988        S  0.08693885  0.21043879  0.15902199    -0.33090
H989        H  0.04327883  0.19363755  0.16273983     0.28280
H990        H  0.98845293  0.40129560  0.21428558     0.28270
H991        H  0.99744152  0.33053123  0.23188885     0.18860
H992        H  0.13892912  0.28637657  0.16153923     0.18870
C993        C  0.95480335  0.19814255  0.27788494    -0.06960
C994        C  0.91465486  0.18821691  0.25522971    -0.18090
C995        C  0.87617895  0.17302092  0.27880972     0.10240
C996        C  0.87784094  0.17033538  0.32723894    -0.06890
C997        C  0.91315958  0.19366551  0.34655384    -0.18120
C998        C  0.95421829  0.19143878  0.32471237     0.10270
S999        S  0.82923837  0.16014999  0.24256379    -0.33090
S1000       S  0.99110537  0.15047369  0.35093304    -0.33090
H1001       H  0.00286346  0.12909427  0.31113939     0.28280
H1002       H  0.79476421  0.15326445  0.27361830     0.28270
H1003       H  0.91373417  0.18977395  0.21910193     0.18860
H1004       H  0.91407147  0.19702173  0.38240518     0.18870
C1005       C  0.89410163  0.33129997  0.16216606    -0.06960
C1006       C  0.91981571  0.30251451  0.13469149    -0.18090
C1007       C  0.94719996  0.26837893  0.15171134     0.10240
C1008       C  0.95225574  0.26273235  0.19798516    -0.06890
C1009       C  0.92425500  0.28725260  0.22588888    -0.18120
C1010       C  0.89484553  0.32029307  0.20954997     0.10270
S1011       S  0.97545864  0.23328094  0.11251819    -0.33090
S1012       S  0.86327053  0.34356223  0.25514980    -0.33090
H1013       H  0.82297298  0.35292762  0.23318519     0.28280
H1014       H  0.96947438  0.19473563  0.13939152     0.28270
H1015       H  0.91847819  0.30595054  0.09874030     0.18860
H1016       H  0.92834443  0.28315692  0.26176137     0.18870
C1017       C  0.03990248  0.20824983  0.27660653    -0.06960
C1018       C  0.06665311  0.17534489  0.25791201    -0.18090
C1019       C  0.10631709  0.16217642  0.27836828     0.10240
C1020       C  0.10922641  0.16565072  0.32566879    -0.06890
C1021       C  0.08183893  0.19908178  0.34506627    -0.18120
C1022       C  0.05169890  0.22467730  0.31883320     0.10270
S1023       S  0.15295249  0.15288694  0.24053336    -0.33090
S1024       S  0.02375781  0.27155689  0.34395695    -0.33090
H1025       H  0.00439192  0.28893662  0.30444836     0.28280
H1026       H  0.18359073  0.17655045  0.26632138     0.28270
H1027       H  0.05744756  0.16038927  0.22694057     0.18860
H1028       H  0.08425126  0.20569532  0.38038374     0.18870
C1029       C  0.33123112  0.88501520  0.15879981    -0.06960
C1030       C  0.29808143  0.90695608  0.13215618    -0.18090
C1031       C  0.27019684  0.94086956  0.14833477     0.10240
C1032       C  0.27175538  0.95206239  0.19392760    -0.06890
C1033       C  0.30067846  0.92767287  0.22203471    -0.18120
C1034       C  0.33097873  0.89549854  0.20581922     0.10270
S1035       S  0.23454931  0.96941507  0.10811619    -0.33090
S1036       S  0.36667998  0.87065481  0.24879426    -0.33090
H1037       H  0.36956897  0.90829252  0.27576158     0.28280
H1038       H  0.19705784  0.97169232  0.13660913     0.28270
H1039       H  0.29602349  0.89970841  0.09690437     0.18860
H1040       H  0.30145896  0.93604771  0.25704764     0.18870
C1041       C  0.20134013  0.03615626  0.26506094    -0.06960
C1042       C  0.22897606  0.06548988  0.28774054    -0.18090
C1043       C  0.21087701  0.09862591  0.31532726     0.10240
C1044       C  0.16312663  0.09874290  0.32607755    -0.06890
C1045       C  0.13618583  0.06966762  0.30086253    -0.18120
C1046       C  0.15429188  0.04027119  0.26995438     0.10270
S1047       S  0.24963812  0.14288326  0.32831813    -0.33090
S1048       S  0.11676411  0.00871264  0.23559377    -0.33090
H1049       H  0.07570653  0.02411273  0.25366253     0.28280
H1050       H  0.28539540  0.13078023  0.29980435     0.28270
H1051       H  0.26523151  0.06202942  0.28418820     0.18860
H1052       H  0.09989205  0.07312770  0.30166110     0.18870
C1053       C  0.27426622  0.03542093  0.19621327    -0.06960
C1054       C  0.32012164  0.03841142  0.20747144    -0.18090
C1055       C  0.34865024  0.07081897  0.18884928     0.10240
C1056       C  0.33074673  0.10404066  0.15823658    -0.06890
C1057       C  0.28372967  0.10098890  0.14854836    -0.18120
C1058       C  0.25559158  0.06848884  0.16749185     0.10270
S1059       S  0.40764975  0.06273446  0.20443861    -0.33090
S1060       S  0.19692954  0.07136467  0.15087740    -0.33090
H1061       H  0.18204136  0.03372957  0.17406358     0.28280
H1062       H  0.42957035  0.09549155  0.17916361     0.28270
H1063       H  0.33470223  0.01339209  0.22993101     0.18860
H1064       H  0.26777103  0.12194258  0.12347300     0.18870
C1065       C  0.15640231  0.90020841  0.33575007    -0.06960
C1066       C  0.16530834  0.88753455  0.29105217    -0.18090
C1067       C  0.18626651  0.91620256  0.26005100     0.10240
C1068       C  0.20853915  0.95407113  0.27559040    -0.06890
C1069       C  0.21018527  0.95990295  0.32221167    -0.18120
C1070       C  0.18281672  0.93579171  0.35194300     0.10270
S1071       S  0.17834122  0.90596880  0.20147038    -0.33090
S1072       S  0.18314115  0.95496118  0.40888272    -0.33090
H1073       H  0.17450055  0.91458549  0.43104556     0.28280
H1074       H  0.14923193  0.86943136  0.20599721     0.28270
H1075       H  0.15284563  0.85647945  0.27891047     0.18860
H1076       H  0.22945710  0.98709774  0.33533373     0.18870
C1077       C  0.20848728  0.30748552  0.96105434    -0.06960
C1078       C  0.17373947  0.28492856  0.93985377    -0.18090
C1079       C  0.14042634  0.30808134  0.91547082     0.10240
C1080       C  0.14875082  0.35253948  0.89993632    -0.06890
C1081       C  0.18394438  0.37499733  0.92153883    -0.18120
C1082       C  0.21370210  0.35348552  0.95102991     0.10270
S1083       S  0.08568214  0.28185079  0.91751477    -0.33090
S1084       S  0.25826664  0.38748639  0.97262742    -0.33090
H1085       H  0.28659295  0.35260177  0.98770600     0.28280
H1086       H  0.05842416  0.31946000  0.91045496     0.28270
H1087       H  0.16846178  0.25016377  0.94805056     0.18860
H1088       H  0.18869669  0.41018341  0.91464529     0.18870
C1089       C  0.33244400  0.16789521  0.09828125    -0.06960
C1090       C  0.30022152  0.19722224  0.11695070    -0.18090
C1091       C  0.26984059  0.22195377  0.08915167     0.10240
C1092       C  0.28208096  0.23041119  0.04307048    -0.06890
C1093       C  0.32344901  0.21162091  0.03022494    -0.18120
C1094       C  0.33885910  0.17320437  0.05164680     0.10270
S1095       S  0.21549121  0.23294924  0.11369204    -0.33090
S1096       S  0.35729873  0.13131005  0.01476258    -0.33090
H1097       H  0.39898872  0.15229538  0.00774675     0.28280
H1098       H  0.22446025  0.21855848  0.15787790     0.28270
H1099       H  0.29456546  0.19501907  0.15268010     0.18860
H1100       H  0.33749606  0.21938850  0.99774030     0.18870
C1101       C  0.20587920  0.30436507  0.04315450    -0.06960
C1102       C  0.22421899  0.34112868  0.06445881    -0.18090
C1103       C  0.19745909  0.36831254  0.09165912     0.10240
C1104       C  0.15474854  0.35261688  0.10717791    -0.06890
C1105       C  0.13587674  0.31764030  0.08267910    -0.18120
C1106       C  0.16041565  0.29325894  0.05225352     0.10270
S1107       S  0.21842930  0.42380488  0.09977819    -0.33090
S1108       S  0.13233403  0.24502646  0.03096851    -0.33090
H1109       H  0.17155424  0.21918297  0.02480462     0.28280
H1110       H  0.17601301  0.44470023  0.10332143     0.28270
H1111       H  0.25842269  0.35105335  0.05713458     0.18860
H1112       H  0.10091890  0.30840293  0.08765800     0.18870
C1113       C  0.31342994  0.16463358  0.90278480    -0.06960
C1114       C  0.30893759  0.21091742  0.89323945    -0.18090
C1115       C  0.28909805  0.24031853  0.92349361     0.10240
C1116       C  0.26316273  0.22345330  0.95983015    -0.06890
C1117       C  0.25697888  0.17704436  0.96218297    -0.18120
C1118       C  0.28234900  0.14751139  0.93546697     0.10270
S1119       S  0.30479176  0.29787277  0.91824662    -0.33090
S1120       S  0.27297822  0.08862691  0.94382059    -0.33090
H1121       H  0.23794462  0.09151977  0.97548988     0.28280
H1122       H  0.33950742  0.29320994  0.88643340     0.28270
H1123       H  0.32467732  0.22550092  0.86397134     0.18860
H1124       H  0.23616763  0.16370631  0.98899391     0.18870
C1125       C  0.59621631  0.67735307  0.65788859    -0.06960
C1126       C  0.56072660  0.70220935  0.63743043    -0.18090
C1127       C  0.53565622  0.73466429  0.65952162     0.10240
C1128       C  0.53789589  0.73724642  0.70622751    -0.06890
C1129       C  0.57649367  0.71809766  0.72669679    -0.18120
C1130       C  0.60829058  0.69292106  0.70163036     0.10270
S1131       S  0.49930310  0.77076610  0.62663608    -0.33090
S1132       S  0.66437787  0.68653986  0.72511853    -0.33090
H1133       H  0.65789543  0.71425567  0.76191764     0.28280
H1134       H  0.49263062  0.80252930  0.65980728     0.28270
H1135       H  0.55181084  0.69780916  0.60350288     0.18860
H1136       H  0.58133635  0.72161060  0.76224779     0.18870
C1137       C  0.70463340  0.54627812  0.71175300    -0.06960
C1138       C  0.71850031  0.55674091  0.66821433    -0.18090
C1139       C  0.69386207  0.58587050  0.63991607     0.10240
C1140       C  0.65422770  0.60879786  0.65629878    -0.06890
C1141       C  0.63841628  0.59427495  0.69844844    -0.18120
C1142       C  0.66431192  0.56693273  0.72737631     0.10270
S1143       S  0.71534099  0.58667099  0.58313095    -0.33090
S1144       S  0.64353055  0.55953569  0.78360547    -0.33090
H1145       H  0.61317765  0.59592678  0.78341275     0.28280
H1146       H  0.67912863  0.60495380  0.55897664     0.28270
H1147       H  0.74757720  0.53915046  0.65483936     0.18860
H1148       H  0.60564479  0.60561603  0.70972409     0.18870
C1149       C  0.65385424  0.67369495  0.59780456    -0.06960
C1150       C  0.69783026  0.68464886  0.61280405    -0.18090
C1151       C  0.72991341  0.70434485  0.58434914     0.10240
C1152       C  0.71577013  0.72205643  0.54253774    -0.06890
C1153       C  0.66985326  0.72076883  0.53223189    -0.18120
C1154       C  0.63974187  0.69475527  0.55657903     0.10270
S1155       S  0.78777801  0.70059011  0.60258176    -0.33090
S1156       S  0.58722614  0.68767242  0.52765172    -0.33090
H1157       H  0.58193719  0.73280883  0.51486715     0.28280
H1158       H  0.80607617  0.69637287  0.55973377     0.28270
H1159       H  0.70963848  0.67300897  0.64513449     0.18860
H1160       H  0.65828754  0.73649816  0.50128868     0.18870
C1161       C  0.38359840  0.33505720  0.65779654    -0.06960
C1162       C  0.37373470  0.33031363  0.70444426    -0.18090
C1163       C  0.40302238  0.30860129  0.73485295     0.10240
C1164       C  0.44161331  0.28617869  0.71849175    -0.06890
C1165       C  0.44599846  0.28216851  0.67224828    -0.18120
C1166       C  0.41853256  0.30574696  0.64195321     0.10270
S1167       S  0.39096514  0.31612033  0.79336907    -0.33090
S1168       S  0.43216771  0.29319179  0.58490815    -0.33090
H1169       H  0.39582111  0.31466859  0.56390694     0.28280
H1170       H  0.43575842  0.31360654  0.80840154     0.28270
H1171       H  0.34391417  0.34548942  0.71869606     0.18860
H1172       H  0.47408141  0.26265640  0.65945378     0.18870
C1173       C  0.29151001  0.46374510  0.71957474    -0.06960
C1174       C  0.26277895  0.43736600  0.69429841    -0.18090
C1175       C  0.27993767  0.40307606  0.66758977     0.10240
C1176       C  0.32759077  0.40026006  0.65866251    -0.06890
C1177       C  0.35554644  0.42719493  0.68478629    -0.18120
C1178       C  0.33839156  0.45430676  0.71791392     0.10270
S1179       S  0.23874741  0.36327683  0.65068434    -0.33090
S1180       S  0.37791405  0.46839147  0.76106096    -0.33090
H1181       H  0.34543986  0.47924596  0.79344504     0.28280
H1182       H  0.26264000  0.32750336  0.67094329     0.28270
H1183       H  0.22654501  0.44216447  0.69679670     0.18860
H1184       H  0.39196210  0.42338551  0.68250722     0.18870
C1185       C  0.32135097  0.33913179  0.59714430    -0.06960
C1186       C  0.31790350  0.29238317  0.60591909    -0.18090
C1187       C  0.30017212  0.26282595  0.57509574     0.10240
C1188       C  0.27936182  0.27972443  0.53585387    -0.06890
C1189       C  0.27529065  0.32616565  0.53053198    -0.18120
C1190       C  0.29592582  0.35585064  0.55946626     0.10270
S1191       S  0.31115519  0.20447234  0.58635156    -0.33090
S1192       S  0.28702041  0.41351564  0.54345323    -0.33090
H1193       H  0.28510293  0.43089809  0.58619492     0.28280
H1194       H  0.30960284  0.18987796  0.54235961     0.28270
H1195       H  0.33183512  0.27721828  0.63595249     0.18860
H1196       H  0.25849065  0.33953432  0.50087249     0.18870
C1197       C  0.65051692  0.41538020  0.33425720    -0.06960
C1198       C  0.68867014  0.39610934  0.31323768    -0.18090
C1199       C  0.72462078  0.42277304  0.29784575     0.10240
C1200       C  0.71705143  0.46879595  0.28880613    -0.06890
C1201       C  0.67255735  0.48413448  0.29515559    -0.18120
C1202       C  0.64262432  0.46211083  0.32391098     0.10270
S1203       S  0.77896331  0.39660880  0.30171609    -0.33090
S1204       S  0.60125675  0.50178656  0.34574289    -0.33090
H1205       H  0.56476768  0.47638813  0.36033086     0.28280
H1206       H  0.80025403  0.43363565  0.31863518     0.28270
H1207       H  0.69477374  0.36065084  0.31749719     0.18860
H1208       H  0.66364467  0.51767989  0.28417932     0.18870
C1209       C  0.69973336  0.29163893  0.45796828    -0.06960
C1210       C  0.72184352  0.32666877  0.43609502    -0.18090
C1211       C  0.69836166  0.35901828  0.41033975     0.10240
C1212       C  0.65186537  0.35302686  0.39827289    -0.06890
C1213       C  0.62995899  0.31766887  0.42162790    -0.18120
C1214       C  0.65324960  0.28655372  0.44897577     0.10270
S1215       S  0.72871692  0.41014902  0.40599591    -0.33090
S1216       S  0.62228277  0.23898724  0.46883365    -0.33090
H1217       H  0.65884080  0.20966577  0.46198423     0.28280
H1218       H  0.69169339  0.43892631  0.40927982     0.28270
H1219       H  0.75726644  0.33164315  0.44305557     0.18860
H1220       H  0.59409781  0.31278205  0.41673988     0.18870
C1221       C  0.59323854  0.35412122  0.33130196    -0.06960
C1222       C  0.60165669  0.30769485  0.32770880    -0.18090
C1223       C  0.57175878  0.27895743  0.30613132     0.10240
C1224       C  0.53792225  0.29654975  0.27675775    -0.06890
C1225       C  0.53631176  0.34295060  0.27203377    -0.18120
C1226       C  0.56032905  0.37136641  0.30003863     0.10270
S1227       S  0.57776902  0.22154142  0.32287176    -0.33090
S1228       S  0.54703677  0.42912985  0.29181735    -0.33090
H1229       H  0.50349244  0.42475685  0.27375010     0.28280
H1230       H  0.53172941  0.21248828  0.32340263     0.28270
H1231       H  0.63041122  0.29215796  0.34400450     0.18860
H1232       H  0.51214228  0.35735888  0.24868544     0.18870
C1233       C  0.39171820  0.66334211  0.33249112    -0.06960
C1234       C  0.42228920  0.63617229  0.30913675    -0.18090
C1235       C  0.45390798  0.65381954  0.27916051     0.10240
C1236       C  0.46070329  0.70033980  0.27591096    -0.06890
C1237       C  0.42937430  0.72787404  0.29732639    -0.18120
C1238       C  0.39258009  0.71029274  0.32153145     0.10270
S1239       S  0.48179573  0.61489847  0.24365085    -0.33090
S1240       S  0.34761196  0.74928127  0.33441909    -0.33090
H1241       H  0.36214917  0.78488331  0.30690378     0.28280
H1242       H  0.47651551  0.64265987  0.20549529     0.28270
H1243       H  0.42007743  0.60030651  0.31286362     0.18860
H1244       H  0.43370819  0.76353655  0.29521286     0.18870
C1245       C  0.33450806  0.67296313  0.39713201    -0.06960
C1246       C  0.28676952  0.67855844  0.39257031    -0.18090
C1247       C  0.26015805  0.70044491  0.42398484     0.10240
C1248       C  0.28160019  0.72267033  0.45885867    -0.06890
C1249       C  0.32892485  0.72444263  0.45877025    -0.18120
C1250       C  0.35571327  0.70017994  0.42966646     0.10270
S1251       S  0.19972887  0.69628915  0.41717478    -0.33090
S1252       S  0.41552855  0.70938318  0.43833365    -0.33090
H1253       H  0.43250981  0.70195336  0.39578671     0.28280
H1254       H  0.18768380  0.70461296  0.46136643     0.28270
H1255       H  0.26880720  0.66472365  0.36485009     0.18860
H1256       H  0.34573253  0.74445138  0.48320710     0.18870
C1257       C  0.32457222  0.60839862  0.34284940    -0.06960
C1258       C  0.29567386  0.58227233  0.37058631    -0.18090
C1259       C  0.26394120  0.55286169  0.35373222     0.10240
C1260       C  0.26128358  0.54570112  0.30743160    -0.06890
C1261       C  0.28661645  0.57385704  0.27931957    -0.18120
C1262       C  0.31528606  0.60664464  0.29582780     0.10270
S1263       S  0.22729474  0.52553196  0.39346338    -0.33090
S1264       S  0.33188539  0.64753918  0.25424917    -0.33090
H1265       H  0.31108707  0.68225829  0.27760217     0.28280
H1266       H  0.19104220  0.52264534  0.36337807     0.28270
H1267       H  0.29618692  0.58630765  0.40643479     0.18860
H1268       H  0.28479356  0.57051858  0.24387121     0.18870
C1269       C  0.73468826  0.71304814  0.46137115    -0.06960
C1270       C  0.71220637  0.73520745  0.42612634    -0.18090
C1271       C  0.68399040  0.71364307  0.39590212     0.10240
C1272       C  0.67353460  0.66712100  0.40368992    -0.06890
C1273       C  0.69787566  0.64587068  0.43917699    -0.18120
C1274       C  0.73157552  0.66677422  0.46305078     0.10270
S1275       S  0.66278914  0.75316436  0.35377879    -0.33090
S1276       S  0.76982721  0.63306930  0.49613193    -0.33090
H1277       H  0.80595449  0.66280757  0.49070519     0.28280
H1278       H  0.64752735  0.72732885  0.31956401     0.28270
H1279       H  0.71458248  0.77038550  0.42259753     0.18860
H1280       H  0.69119069  0.61225717  0.44950743     0.18870
C1281       C  0.60742245  0.66058661  0.34451840    -0.06960
C1282       C  0.60112557  0.64580302  0.30024968    -0.18090
C1283       C  0.57429023  0.66903040  0.26889956     0.10240
C1284       C  0.54428138  0.70220672  0.28375215    -0.06890
C1285       C  0.54506164  0.71306228  0.32891992    -0.18120
C1286       C  0.57633954  0.69463295  0.35898339     0.10270
S1287       S  0.58133234  0.65422969  0.21109415    -0.33090
S1288       S  0.57241746  0.71927975  0.41371977    -0.33090
H1289       H  0.60303767  0.69288625  0.43749608     0.28280
H1290       H  0.54445374  0.67818565  0.19375093     0.28270
H1291       H  0.61763711  0.61604354  0.28875569     0.18860
H1292       H  0.52016729  0.73652920  0.34128154     0.18870
C1293       C  0.67839159  0.60603666  0.34975280    -0.06960
C1294       C  0.70025386  0.56952920  0.37200066    -0.18090
C1295       C  0.73389587  0.54388307  0.35214471     0.10240
C1296       C  0.74076856  0.54710212  0.30576780    -0.06890
C1297       C  0.72386376  0.58528184  0.28382538    -0.18120
C1298       C  0.69895005  0.61728346  0.30717816     0.10270
S1299       S  0.76747303  0.50859992  0.38861705    -0.33090
S1300       S  0.69958269  0.67134383  0.28090395    -0.33090
H1301       H  0.72736110  0.68808342  0.31454750     0.28280
H1302       H  0.79924595  0.49516082  0.35714067     0.28270
H1303       H  0.69406519  0.56041608  0.40605696     0.18860
H1304       H  0.73002563  0.59081611  0.24853660     0.18870
C1305       C  0.33458613  0.40300537  0.34849769    -0.06960
C1306       C  0.28767593  0.40262425  0.35884663    -0.18090
C1307       C  0.25610895  0.43040777  0.33692675     0.10240
C1308       C  0.27125541  0.46307816  0.30619444    -0.06890
C1309       C  0.31763709  0.46509446  0.29669667    -0.18120
C1310       C  0.34943827  0.43739830  0.31811184     0.10270
S1311       S  0.19719875  0.42448117  0.35095559    -0.33090
S1312       S  0.40768363  0.45155887  0.30510053    -0.33090
H1313       H  0.43219689  0.42053860  0.33076891     0.28280
H1314       H  0.20065897  0.38200030  0.37149275     0.28270
H1315       H  0.27482571  0.38113162  0.38508800     0.18860
H1316       H  0.32974602  0.49078693  0.27380721     0.18870
C1317       C  0.30125045  0.26681381  0.45556213    -0.06960
C1318       C  0.28807005  0.27319665  0.41082288    -0.18090
C1319       C  0.31128989  0.30299057  0.38237405     0.10240
C1320       C  0.34218359  0.33410883  0.40154460    -0.06890
C1321       C  0.35501007  0.32495045  0.44634214    -0.18120
C1322       C  0.34237801  0.28520231  0.46673344     0.10270
S1323       S  0.30106775  0.29498410  0.32337142    -0.33090
S1324       S  0.38209284  0.25347145  0.49976763    -0.33090
H1325       H  0.36401669  0.21197183  0.48936443     0.28280
H1326       H  0.30099478  0.33856853  0.30695120     0.28270
H1327       H  0.26263839  0.25360354  0.39598512     0.18860
H1328       H  0.38086804  0.34332516  0.46294229     0.18870
C1329       C  0.45450172  0.29004219  0.28532956    -0.06960
C1330       C  0.45585314  0.28332007  0.33120474    -0.18090
C1331       C  0.43227243  0.31021159  0.36025762     0.10240
C1332       C  0.39981085  0.34244599  0.34322711    -0.06890
C1333       C  0.39482078  0.34464648  0.29601527    -0.18120
C1334       C  0.42313710  0.32111282  0.26720496     0.10270
S1335       S  0.44805298  0.29940521  0.41778937    -0.33090
S1336       S  0.41785012  0.33432420  0.20837207    -0.33090
H1337       H  0.46294340  0.32594318  0.19704287     0.28280
H1338       H  0.49448162  0.29184462  0.40997275     0.28270
H1339       H  0.47922151  0.25887082  0.34498491     0.18860
H1340       H  0.36955965  0.36569820  0.28028990     0.18870
C1341       C  0.64928135  0.40052004  0.66801159    -0.06960
C1342       C  0.69663648  0.39470153  0.67322246    -0.18090
C1343       C  0.72372929  0.42769940  0.69230495     0.10240
C1344       C  0.70306555  0.46203555  0.71713662    -0.06890
C1345       C  0.65612666  0.46115649  0.72077703    -0.18120
C1346       C  0.62955876  0.43639868  0.69243490     0.10270
S1347       S  0.78316429  0.42693597  0.67996412    -0.33090
S1348       S  0.57257881  0.45788099  0.68577711    -0.33090
H1349       H  0.58120207  0.50227799  0.69688176     0.28280
H1350       H  0.78302093  0.39199985  0.64945757     0.28270
H1351       H  0.71339182  0.36589809  0.65982884     0.18860
H1352       H  0.63926613  0.48414710  0.74213220     0.18870
C1353       C  0.58846604  0.34361103  0.66980522    -0.06960
C1354       C  0.54466666  0.36057936  0.67756989    -0.18090
C1355       C  0.51794509  0.34439123  0.71192758     0.10240
C1356       C  0.52468969  0.30042461  0.72812425    -0.06890
C1357       C  0.56762247  0.28113323  0.71980132    -0.18120
C1358       C  0.60128924  0.30546313  0.69645814     0.10270
S1359       S  0.47703328  0.38266692  0.73444720    -0.33090
S1360       S  0.65825415  0.28406283  0.69909682    -0.33090
H1361       H  0.67314087  0.32034288  0.72374123     0.28280
H1362       H  0.48311249  0.36651145  0.77846324     0.28270
H1363       H  0.53124794  0.38910724  0.65972922     0.18860
H1364       H  0.57574960  0.24771595  0.73113414     0.18870
C1365       C  0.64923284  0.33892467  0.60521267    -0.06960
C1366       C  0.68543659  0.35896064  0.58148389    -0.18090
C1367       C  0.71346635  0.33580444  0.55206069     0.10240
C1368       C  0.70396212  0.29122058  0.54163035    -0.06890
C1369       C  0.66774777  0.27082440  0.56396082    -0.18120
C1370       C  0.63866796  0.29436056  0.59257140     0.10270
S1371       S  0.76082797  0.36626264  0.52944700    -0.33090
S1372       S  0.58592333  0.26640643  0.60372755    -0.33090
H1373       H  0.55827473  0.30367563  0.59523309     0.28280
H1374       H  0.78538570  0.32957916  0.51417292     0.28270
H1375       H  0.69241140  0.39384236  0.58603019     0.18860
H1376       H  0.65891259  0.23732983  0.55533930     0.18870
C1377       C  0.45556345  0.71874510  0.71728417    -0.06960
C1378       C  0.41167788  0.73424279  0.70660560    -0.18090
C1379       C  0.38017778  0.70557020  0.68683746     0.10240
C1380       C  0.39649672  0.66769785  0.66298331    -0.06890
C1381       C  0.44173449  0.65525469  0.67135566    -0.18120
C1382       C  0.46594520  0.67459154  0.70529084     0.10270
S1383       S  0.32137280  0.72142247  0.69028039    -0.33090
S1384       S  0.50800018  0.64015501  0.73330578    -0.33090
H1385       H  0.50853543  0.66542080  0.77231968     0.28280
H1386       H  0.30793288  0.67990581  0.70770827     0.28270
H1387       H  0.40127379  0.76786387  0.71368711     0.18860
H1388       H  0.45690690  0.62639670  0.65646897     0.18870
C1389       C  0.33800824  0.66781454  0.59826702    -0.06960
C1390       C  0.30514960  0.64687376  0.57215422    -0.18090
C1391       C  0.27358177  0.67095770  0.54661919     0.10240
C1392       C  0.27726102  0.71750310  0.54124245    -0.06890
C1393       C  0.31171979  0.73876017  0.56393332    -0.18120
C1394       C  0.34444068  0.71422603  0.58800527     0.10270
S1395       S  0.22895716  0.64022494  0.52142065    -0.33090
S1396       S  0.39730035  0.74277691  0.59209908    -0.33090
H1397       H  0.42437095  0.70551755  0.58322200     0.28280
H1398       H  0.19600868  0.67272201  0.53112204     0.28270
H1399       H  0.30218704  0.61102099  0.57340873     0.18860
H1400       H  0.31768723  0.77365685  0.55629279     0.18870
C1401       C  0.33852626  0.60744860  0.66538619    -0.06960
C1402       C  0.29102684  0.60212504  0.66166542    -0.18090
C1403       C  0.26890556  0.56706983  0.68404986     0.10240
C1404       C  0.28920245  0.54718914  0.72250170    -0.06890
C1405       C  0.33165018  0.56216376  0.73439421    -0.18120
C1406       C  0.35879228  0.58292817  0.70212530     0.10270
S1407       S  0.21578760  0.54957239  0.66063609    -0.33090
S1408       S  0.41695054  0.56560709  0.70631907    -0.33090
H1409       H  0.41755079  0.54615468  0.66409818     0.28280
H1410       H  0.20243418  0.52045815  0.69521668     0.28270
H1411       H  0.27028123  0.62250101  0.64000727     0.18860
H1412       H  0.34684907  0.55017452  0.76510383     0.18870
loop_ 
_geom_bond_atom_site_label_1 
_geom_bond_atom_site_label_2 
_geom_bond_distance 
_geom_bond_site_symmetry_2 
_ccdc_geom_bond_type 
C1           C22   1.548       .  S
C1         C1380   1.568       .  S
C1         C1389   1.577       .  S
C1         C1401   1.582       .  S
N2            N3   1.325       .  A
N2            N8   1.316       .  A
N2          Mn31   2.244       .  S
N3           C10   1.357       .  A
N4            N6   1.313       .  A
N4            N5   1.326       .  A
N4          Mn20   2.234       .  S
N5           C11   1.366       .  A
N6            N7   1.315       .  A
N6          Mn31   2.181       .  S
N7           C11   1.346       .  A
N8            N9   1.327       .  A
N8          Mn20   2.234       .  S
N9           C10   1.362       .  A
C10          C52   1.579       .  S
C11          C48   1.548       .  S
N12          N18   1.319       .  A
N12          N13   1.326       .  A
N12         Mn42   2.247       .  S
N13          C21   1.361       .  A
N14          N15   1.327       .  A
N14          N16   1.317       .  A
N14         Mn20   2.235       .  S
N15          C22   1.363       .  A
N16          N17   1.321       .  A
N16         Mn42   2.220       .  S
N17          C22   1.355       .  A
N18          N19   1.325       .  A
N18         Mn20   2.241       .  S
N19          C21   1.360       .  A
Mn20        Cl44   2.582       .  S
C21          C50   1.577       .  S
N23          N24   1.329       .  A
N23          N29   1.316       .  A
N23         Mn31   2.210       .  S
N24          C32   1.358       .  A
N25          N27   1.316       .  A
N25          N26   1.323       .  A
N25         Mn43   2.208       .  S
N26          C33   1.358       .  A
N27          N28   1.318       .  A
N27         Mn31   2.202       .  S
N28          C33   1.354       .  A
N29          N30   1.318       .  A
N29         Mn43   2.241       .  S
N30          C32   1.360       .  A
Mn31        Cl44   2.539       .  S
C32          C51   1.535       .  S
C33          C47   1.537       .  S
N34          N35   1.326       .  A
N34          N40   1.316       .  A
N34         Mn42   2.230       .  S
N35          C45   1.356       .  A
N36          N37   1.325       .  A
N36          N38   1.314       .  A
N36         Mn43   2.210       .  S
N37          C46   1.356       .  A
N38          N39   1.327       .  A
N38         Mn42   2.267       .  S
N39          C46   1.369       .  A
N40          N41   1.324       .  A
N40         Mn43   2.249       .  S
N41          C45   1.366       .  A
Mn42        Cl44   2.541       .  S
Mn43        Cl44   2.578       .  S
C45          C53   1.574       .  S
C46          C49   1.594       .  S
C47        C1341   1.577       .  S
C47        C1353   1.564       .  S
C47        C1365   1.579       .  S
C48        C1305   1.564       .  S
C48        C1320   1.558       .  S
C48        C1332   1.569       .  S
C49        C1272   1.575       .  S
C49        C1281   1.564       .  S
C49        C1293   1.603       .  S
C50        C1233   1.562       .  S
C50        C1245   1.564       .  S
C50        C1257   1.591       .  S
C51        C1197   1.567       .  S
C51        C1212   1.597       .  S
C51        C1221   1.604       .  S
C52        C1161   1.593       .  S
C52        C1176   1.570       .  S
C52        C1185   1.581       .  S
C53        C1125   1.599       .  S
C53        C1140   1.575       .  S
C53        C1149   1.565       .  S
C54          C55   1.375       .  D
C54        C1092   1.540       .  S
C54        C1116   1.532   1_554  S
C55        C1077   1.497   1_554  S
C55        C1101   1.482       .  S
C56          C57   1.378       .  D
C56        C1041   1.499   1_565  S
C56        C1068   1.508       .  S
C57        C1032   1.501       .  S
C57        C1053   1.501   1_565  S
C58          C59   1.375       .  D
C58         C993   1.520       .  S
C58        C1017   1.471   1_655  S
C59         C981   1.511   1_655  S
C59        C1008   1.491       .  S
C60          C61   1.371       .  D
C60        C1224   1.528       .  S
C60        C1329   1.481       .  S
C61         C957   1.483       .  S
C61         C972   1.514       .  S
C62          C63   1.369       .  D
C62        C1188   1.514       .  S
C62        C1317   1.514       .  S
C63         C933   1.489       .  S
C63         C945   1.486       .  S
C64          C65   1.379       .  D
C64        C1260   1.514       .  S
C64        C1308   1.497       .  S
C65         C909   1.509       .  S
C65         C924   1.500       .  S
C66          C67   1.389       .  D
C66         C861   1.497       .  S
C66         C876   1.558   1_554  S
C67         C885   1.532       .  S
C67         C900   1.476   1_554  S
C68          C69   1.386       .  D
C68         C840   1.532       .  S
C68         C852   1.513   1_554  S
C69         C816   1.486       .  S
C69         C828   1.504   1_554  S
C70          C71   1.389       .  D
C70         C789   1.518       .  S
C70         C801   1.509   1_655  S
C71         C765   1.514   1_655  S
C71         C777   1.508       .  S
C72          C73   1.375       .  D
C72        C1200   1.530       .  S
C72        C1296   1.508       .  S
C73         C741   1.503       .  S
C73         C756   1.490       .  S
C74          C75   1.376       .  D
C74         C717   1.516       .  S
C74         C732   1.495       .  S
C75        C1173   1.503       .  S
C75        C1404   1.497       .  S
C76          C85   1.556       .  S
C76         C684   1.564       .  S
C76         C693   1.561       .  S
C76         C705   1.569       .  S
N77          N78   1.325       .  A
N77          N83   1.315       .  A
N77        Mn106   2.220       .  S
N78          C85   1.358       .  A
N79          N81   1.313       .  A
N79          N80   1.316       .  A
N79         Mn95   2.207   1_455  S
N80          C86   1.360       .  A
N81          N82   1.326       .  A
N81        Mn106   2.209   1_455  S
N82          C86   1.356       .  A
N83          N84   1.324       .  A
N83         Mn95   2.228       .  S
N84          C85   1.360       .  A
C86         C124   1.543       .  S
N87          N93   1.316       .  A
N87          N88   1.321       .  A
N87        Mn117   2.215   1_455  S
N88          C96   1.354       .  A
N89          N90   1.311       .  A
N89          N91   1.314       .  A
N89         Mn95   2.183   1_554  S
N90          C97   1.344       .  A
N91          N92   1.324       .  A
N91        Mn117   2.212       .  S
N92          C97   1.361       .  A
N93          N94   1.336       .  A
N93         Mn95   2.295   1_454  S
N94          C96   1.372       .  A
Mn95       Cl119   2.573   1_556  S
C96         C129   1.584       .  S
C97         C126   1.536       .  S
N98          N99   1.321       .  A
N98         N104   1.312       .  A
N98        Mn106   2.177   1_455  S
N99         C107   1.348       .  A
N100        N102   1.317       .  A
N100        N101   1.335       .  A
N100       Mn118   2.270   1_556  S
N101        C108   1.368       .  A
N102        N103   1.323       .  A
N102       Mn106   2.242       .  S
N103        C108   1.359       .  A
N104        N105   1.316       .  A
N104       Mn118   2.204   1_456  S
N105        C107   1.360       .  A
Mn106      Cl119   2.529   1_556  S
C107        C123   1.532       .  S
C108        C125   1.586       .  S
N109        N110   1.328       .  A
N109        N115   1.315       .  A
N109       Mn117   2.263       .  S
N110        C120   1.370       .  A
N111        N112   1.317       .  A
N111        N113   1.316       .  A
N111       Mn118   2.228   1_455  S
N112        C121   1.361       .  A
N113        N114   1.326       .  A
N113       Mn117   2.201   1_455  S
N114        C121   1.354       .  A
N115        N116   1.316       .  A
N115       Mn118   2.182       .  S
N116        C120   1.352       .  A
Mn117      Cl119   2.535       .  S
Mn118      Cl119   2.579       .  S
C120        C122   1.585       .  S
C121        C130   1.547       .  S
C122        C753   1.557       .  S
C122        C837   1.582       .  S
C122       C1005   1.574       .  S
C123        C729   1.577       .  S
C123        C804   1.547       .  S
C123       C1080   1.571       .  S
C124        C669   1.555       .  S
C124        C720   1.563       .  S
C124        C873   1.571       .  S
C125        C657   1.572       .  S
C125        C792   1.566       .  S
C125        C849   1.547       .  S
C126        C633   1.567       .  S
C126        C645   1.556       .  S
C126        C744   1.566       .  S
C127        C128   1.379       .  D
C127       C1137   1.513       .  S
C127       C1344   1.518       .  S
C128        C660   1.497       .  S
C128        C708   1.493       .  S
C129        C624   1.588       .  S
C129        C864   1.567       .  S
C129        C921   1.599       .  S
C130        C912   1.574       .  S
C130        C984   1.576       .  S
C130       C1104   1.563       .  S
C131        C132   1.375       .  D
C131        C597   1.520       .  S
C131        C609   1.505   1_545  S
C132        C576   1.487   1_545  S
C132        C585   1.501       .  S
C133        C134   1.383       .  D
C133       C1236   1.512       .  S
C133       C1284   1.490       .  S
C134        C549   1.506       .  S
C134        C561   1.495       .  S
C135        C136   1.373       .  D
C135       C1164   1.504       .  S
C135       C1356   1.521       .  S
C136        C525   1.493       .  S
C136        C537   1.494       .  S
C137        C158   1.556       .  S
C137        C513   1.578       .  S
C137        C540   1.552       .  S
C137        C825   1.584       .  S
N138        N139   1.318       .  A
N138        N144   1.314       .  A
N138       Mn167   2.197   1_556  S
N139        C146   1.350       .  A
N140        N142   1.315       .  A
N140        N141   1.324       .  A
N140       Mn156   2.236   1_565  S
N141        C147   1.362       .  A
N142        N143   1.327       .  A
N142       Mn167   2.239       .  S
N143        C147   1.362       .  A
N144        N145   1.326       .  A
N144       Mn156   2.240   1_566  S
N145        C146   1.365       .  A
C146        C186   1.550       .  S
C147        C183   1.566       .  S
N148        N154   1.316       .  A
N148        N149   1.328       .  A
N148       Mn178   2.239       .  S
N149        C157   1.360       .  A
N150        N151   1.324       .  A
N150        N152   1.318       .  A
N150       Mn156   2.236   1_556  S
N151        C158   1.359       .  A
N152        N153   1.321       .  A
N152       Mn178   2.218   1_556  S
N153        C158   1.358       .  A
N154        N155   1.322       .  A
N154       Mn156   2.220       .  S
N155        C157   1.360       .  A
Mn156      Cl180   2.572       .  S
C157        C191   1.563       .  S
N159        N160   1.317       .  A
N159        N165   1.314       .  A
N159       Mn167   2.198       .  S
N160        C168   1.351       .  A
N161        N163   1.312       .  A
N161        N162   1.313       .  A
N161       Mn179   2.223   1_566  S
N162        C169   1.344       .  A
N163        N164   1.332       .  A
N163       Mn167   2.223   1_556  S
N164        C169   1.365       .  A
N165        N166   1.329       .  A
N165       Mn179   2.241   1_565  S
N166        C168   1.366       .  A
Mn167      Cl180   2.546   1_565  S
C168        C187   1.571       .  S
C169        C184   1.556       .  S
N170        N171   1.329       .  A
N170        N176   1.317       .  A
N170       Mn178   2.271   1_556  S
N171        C181   1.366       .  A
N172        N173   1.323       .  A
N172        N174   1.319       .  A
N172       Mn179   2.234       .  S
N173        C182   1.364       .  A
N174        N175   1.322       .  A
N174       Mn178   2.208       .  S
N175        C182   1.352       .  A
N176        N177   1.331       .  A
N176       Mn179   2.240   1_556  S
N177        C181   1.359       .  A
Mn178      Cl180   2.542       .  S
Mn179      Cl180   2.567       .  S
C181        C185   1.583       .  S
C182        C190   1.543       .  S
C183        C489   1.550       .  S
C183        C501   1.584       .  S
C183        C564   1.577       .  S
C184        C477   1.598       .  S
C184        C612   1.617       .  S
C184        C897   1.587       .  S
C185        C528   1.583       .  S
C185        C600   1.584       .  S
C185       C1113   1.595       .  S
C186        C444   1.581       .  S
C186        C453   1.579       .  S
C186        C465   1.568       .  S
C187        C552   1.544       .  S
C187        C888   1.577       .  S
C187       C1029   1.580       .  S
C188        C189   1.385       .  D
C188        C468   1.494       .  S
C188        C480   1.531       .  S
C189       C1128   1.527       .  S
C189       C1377   1.519       .  S
C190        C969   1.578       .  S
C190       C1056   1.576       .  S
C190       C1089   1.569       .  S
C191        C432   1.549       .  S
C191        C813   1.551       .  S
C191        C960   1.558       .  S
C192        C193   1.367       .  D
C192        C621   1.506   1_655  S
C192        C648   1.521       .  S
C193        C405   1.494   1_655  S
C193        C420   1.483       .  S
C194        C195   1.363   1_545  D
C194        C381   1.483   1_545  S
C194        C396   1.482       .  S
C195        C429   1.488   1_565  S
C195        C504   1.484       .  S
C196        C197   1.389       .  D
C196       C1209   1.509       .  S
C196       C1368   1.510       .  S
C197        C357   1.535       .  S
C197        C372   1.516       .  S
C198        C199   1.373       .  D
C198       C1248   1.494       .  S
C198       C1392   1.496       .  S
C199        C336   1.483       .  S
C199        C345   1.503       .  S
C200        C209   1.602       .  S
C200        C360   1.580       .  S
C200        C393   1.550       .  S
C200        C996   1.564       .  S
N201        N202   1.329       .  A
N201        N207   1.317       .  A
N201       Mn230   2.235       .  S
N202        C209   1.360       .  A
N203        N205   1.320       .  A
N203        N204   1.337       .  A
N203       Mn219   2.289   1_455  S
N204        C210   1.373       .  A
N205        N206   1.324       .  A
N205       Mn230   2.248   1_455  S
N206        C210   1.358       .  A
N207        N208   1.326       .  A
N207       Mn219   2.266       .  S
N208        C209   1.370       .  A
C210        C253   1.590       .  S
N211        N217   1.320       .  A
N211        N212   1.322       .  A
N211       Mn241   2.225   1_455  S
N212        C220   1.354       .  A
N213        N214   1.329       .  A
N213        N215   1.320       .  A
N213       Mn219   2.272       .  S
N214        C221   1.367       .  A
N215        N216   1.322       .  A
N215       Mn241   2.220       .  S
N216        C221   1.352       .  A
N217        N218   1.327       .  A
N217       Mn219   2.247   1_455  S
N218        C220   1.364       .  A
Mn219      Cl243   2.586       .  S
C220        C254   1.564       .  S
C221        C249   1.564       .  S
N222        N223   1.327       .  A
N222        N228   1.315       .  A
N222       Mn230   2.218   1_465  S
N223        C231   1.359       .  A
N224        N226   1.315       .  A
N224        N225   1.320       .  A
N224       Mn242   2.201       .  S
N225        C232   1.354       .  A
N226        N227   1.321       .  A
N226       Mn230   2.217   1_565  S
N227        C232   1.357       .  A
N228        N229   1.320       .  A
N228       Mn242   2.238   1_455  S
N229        C231   1.355       .  A
Mn230      Cl243   2.562       .  S
C231        C247   1.564       .  S
C232        C246   1.544       .  S
N233        N234   1.325       .  A
N233        N239   1.312       .  A
N233       Mn241   2.201   1_565  S
N234        C244   1.356       .  A
N235        N236   1.320       .  A
N235        N237   1.315       .  A
N235       Mn242   2.205   1_455  S
N236        C245   1.352       .  A
N237        N238   1.327       .  A
N237       Mn241   2.242   1_465  S
N238        C245   1.366       .  A
N239        N240   1.324       .  A
N239       Mn242   2.249       .  S
N240        C244   1.364       .  A
Mn241      Cl243   2.556       .  S
Mn242      Cl243   2.555   1_565  S
C244        C250   1.572       .  S
C245        C248   1.561       .  S
C246        C321   1.569       .  S
C246        C384   1.551       .  S
C246        C417   1.567       .  S
C247        C333   1.573       .  S
C247        C408   1.572       .  S
C247       C1065   1.569       .  S
C248        C312   1.560       .  S
C248        C348   1.588       .  S
C248        C573   1.578       .  S
C249        C300   1.577       .  S
C249        C369   1.575       .  S
C249        C780   1.565       .  S
C250        C261   1.583       .  S
C250        C276   1.575       .  S
C250        C288   1.573       .  S
C251        C252   1.364       .  D
C251       C1152   1.496       .  S
C251       C1269   1.518       .  S
C252        C285   1.495       .  S
C252        C324   1.479       .  S
C253        C948   1.546       .  S
C253       C1020   1.550       .  S
C253       C1044   1.584       .  S
C254        C588   1.574       .  S
C254        C768   1.567       .  S
C254        C936   1.536       .  S
C255        C256   1.391       .  D
C255        C672   1.482   1_655  S
C255        C696   1.513       .  S
C256        C264   1.500       .  S
C256        C309   1.531   1_655  S
C257        C258   1.388       .  D
C257        C441   1.500   1_545  S
C257        C516   1.499       .  S
C258        C273   1.526   1_545  S
C258        C297   1.511       .  S
C259        C260   1.387       .  D
C259        C636   1.466   1_556  S
C259        C681   1.510       .  S
C260        C456   1.499       .  S
C260        C492   1.540   1_556  S
C261        C262   1.422       .  A
C261        C266   1.436       .  A
C262        C263   1.391       .  A
C262        H271   1.077       .  S
C263        C264   1.416       .  A
C263        S267   1.818       .  S
C264        C265   1.401       .  A
C265        C266   1.406       .  A
C265        H272   1.085       .  S
C266        S268   1.800       .  S
S267        H270   1.406       .  S
S268        H269   1.385       .  S
C273        C274   1.401       .  A
C273        C278   1.422       .  A
C274        C275   1.404       .  A
C274        H283   1.070       .  S
C275        C276   1.436       .  A
C275        S279   1.800       .  S
C276        C277   1.413       .  A
C277        C278   1.402       .  A
C277        H284   1.083       .  S
C278        S280   1.802   1_565  S
S279        H282   1.405       .  S
S280        H281   1.408       .  S
C285        C286   1.398       .  A
C285        C290   1.409       .  A
C286        C287   1.387       .  A
C286        H295   1.078       .  S
C287        C288   1.439       .  A
C287        S291   1.825       .  S
C288        C289   1.425       .  A
C289        C290   1.399       .  A
C289        H296   1.077       .  S
C290        S292   1.802       .  S
S291        H294   1.396       .  S
S292        H293   1.387       .  S
C297        C298   1.403       .  A
C297        C302   1.405       .  A
C298        C299   1.406       .  A
C298        H307   1.068       .  S
C299        C300   1.438       .  A
C299        S303   1.812       .  S
C300        C301   1.414       .  A
C301        C302   1.393       .  A
C301        H308   1.067       .  S
C302        S304   1.795       .  S
S303        H306   1.407       .  S
S304        H305   1.398       .  S
C309        C310   1.412       .  A
C309        C314   1.413       .  A
C310        C311   1.402       .  A
C310        H319   1.071       .  S
C311        C312   1.424       .  A
C311        S315   1.807       .  S
C312        C313   1.411       .  A
C313        C314   1.391       .  A
C313        H320   1.082       .  S
C314        S316   1.781       .  S
S315        H318   1.403       .  S
S316        H317   1.405       .  S
C321        C322   1.424       .  A
C321        C326   1.440       .  A
C322        C323   1.381       .  A
C322        H331   1.074       .  S
C323        C324   1.401       .  A
C323        S327   1.811       .  S
C324        C325   1.399       .  A
C325        C326   1.396       .  A
C325        H332   1.080       .  S
C326        S328   1.823       .  S
S327        H330   1.399       .  S
S328        H329   1.396       .  S
C333        C334   1.428       .  A
C333        C338   1.442       .  A
C334        C335   1.392       .  A
C334        H343   1.078       .  S
C335        C336   1.402       .  A
C335        S339   1.807       .  S
C336        C337   1.400       .  A
C337        C338   1.389       .  A
C337        H344   1.085       .  S
C338        S340   1.827       .  S
S339        H342   1.399       .  S
S340        H341   1.397       .  S
C345        C346   1.387       .  A
C345        C350   1.413       .  A
C346        C347   1.399       .  A
C346        H355   1.079       .  S
C347        C348   1.452       .  A
C347        S351   1.796       .  S
C348        C349   1.413       .  A
C349        C350   1.394       .  A
C349        H356   1.083       .  S
C350        S352   1.797       .  S
S351        H354   1.409       .  S
S352        H353   1.406       .  S
C357        C358   1.412       .  A
C357        C362   1.409       .  A
C358        C359   1.426       .  A
C358        H367   1.072       .  S
C359        C360   1.448       .  A
C359        S363   1.798       .  S
C360        C361   1.403       .  A
C361        C362   1.373       .  A
C361        H368   1.078       .  S
C362        S364   1.797       .  S
S363        H366   1.408       .  S
S364        H365   1.408       .  S
C369        C370   1.415       .  A
C369        C374   1.433       .  A
C370        C371   1.405       .  A
C370        H379   1.083       .  S
C371        C372   1.418       .  A
C371        S375   1.800       .  S
C372        C373   1.401       .  A
C373        C374   1.407       .  A
C373        H380   1.079       .  S
C374        S376   1.814       .  S
S375        H378   1.398       .  S
S376        H377   1.396       .  S
C381        C382   1.404       .  A
C381        C386   1.405       .  A
C382        C383   1.387       .  A
C382        H391   1.081       .  S
C383        C384   1.430       .  A
C383        S387   1.816       .  S
C384        C385   1.420       .  A
C385        C386   1.388       .  A
C385        H392   1.077       .  S
C386        S388   1.807       .  S
S387        H390   1.396       .  S
S388        H389   1.407       .  S
C393        C394   1.425       .  A
C393        C398   1.439       .  A
C394        C395   1.393       .  A
C394        H403   1.078       .  S
C395        C396   1.401       .  A
C395        S399   1.802       .  S
C396        C397   1.397       .  A
C397        C398   1.390       .  A
C397        H404   1.085       .  S
C398        S400   1.821       .  S
S399        H402   1.397       .  S
S400        H401   1.387       .  S
C405        C406   1.398       .  A
C405        C410   1.404       .  A
C406        C407   1.400       .  A
C406        H415   1.079       .  S
C407        C408   1.431       .  A
C407        S411   1.804       .  S
C408        C409   1.419       .  A
C409        C410   1.393       .  A
C409        H416   1.072       .  S
C410        S412   1.799       .  S
S411        H414   1.406       .  S
S412        H413   1.406       .  S
C417        C418   1.419       .  A
C417        C422   1.432       .  A
C418        C419   1.388       .  A
C418        H427   1.077       .  S
C419        C420   1.407       .  A
C419        S423   1.807       .  S
C420        C421   1.399       .  A
C421        C422   1.397       .  A
C421        H428   1.077       .  S
C422        S424   1.814       .  S
S423        H426   1.394       .  S
S424        H425   1.405       .  S
C429        C430   1.396       .  A
C429        C434   1.411       .  A
C430        C431   1.391       .  A
C430        H439   1.079       .  S
C431        C432   1.437       .  A
C431        S435   1.809       .  S
C432        C433   1.414       .  A
C433        C434   1.388       .  A
C433        H440   1.084       .  S
C434        S436   1.802   1_545  S
S435        H438   1.407       .  S
S436        H437   1.404       .  S
C441        C442   1.406       .  A
C441        C446   1.415       .  A
C442        C443   1.409       .  A
C442        H451   1.084       .  S
C443        C444   1.431       .  A
C443        S447   1.801       .  S
C444        C445   1.412       .  A
C445        C446   1.396       .  A
C445        H452   1.075       .  S
C446        S448   1.808       .  S
S447        H450   1.396       .  S
S448        H449   1.395       .  S
C453        C454   1.415       .  A
C453        C458   1.450       .  A
C454        C455   1.395       .  A
C454        H463   1.079       .  S
C455        C456   1.424       .  A
C455        S459   1.817       .  S
C456        C457   1.391       .  A
C457        C458   1.397       .  A
C457        H464   1.085       .  S
C458        S460   1.805       .  S
S459        H462   1.406       .  S
S460        H461   1.408       .  S
C465        C466   1.410       .  A
C465        C470   1.436       .  A
C466        C467   1.381       .  A
C466        H475   1.056       .  S
C467        C468   1.401       .  A
C467        S471   1.808       .  S
C468        C469   1.404       .  A
C469        C470   1.409       .  A
C469        H476   1.082       .  S
C470        S472   1.800       .  S
S471        H474   1.407       .  S
S472        H473   1.407       .  S
C477        C478   1.414       .  A
C477        C482   1.446       .  A
C478        C479   1.407       .  A
C478        H487   1.083       .  S
C479        C480   1.421       .  A
C479        S483   1.798       .  S
C480        C481   1.403       .  A
C481        C482   1.411       .  A
C481        H488   1.081       .  S
C482        S484   1.809       .  S
S483        H486   1.405       .  S
S484        H485   1.400       .  S
C489        C490   1.409       .  A
C489        C494   1.425       .  A
C490        C491   1.378       .  A
C490        H499   1.075       .  S
C491        C492   1.411       .  A
C491        S495   1.794   1_554  S
C492        C493   1.409       .  A
C493        C494   1.405       .  A
C493        H500   1.067       .  S
C494        S496   1.808       .  S
S495        H498   1.406       .  S
S496        H497   1.406       .  S
C501        C502   1.425       .  A
C501        C506   1.429       .  A
C502        C503   1.396       .  A
C502        H511   1.076       .  S
C503        C504   1.404       .  A
C503        S507   1.807       .  S
C504        C505   1.401       .  A
C505        C506   1.387       .  A
C505        H512   1.083       .  S
C506        S508   1.806       .  S
S507        H510   1.401       .  S
S508        H509   1.408       .  S
C513        C514   1.416       .  A
C513        C518   1.439       .  A
C514        C515   1.391       .  A
C514        H523   1.082       .  S
C515        C516   1.407       .  A
C515        S519   1.789       .  S
C516        C517   1.399       .  A
C517        C518   1.403       .  A
C517        H524   1.081       .  S
C518        S520   1.812       .  S
S519        H522   1.401       .  S
S520        H521   1.407       .  S
C525        C526   1.393       .  A
C525        C530   1.408       .  A
C526        C527   1.390       .  A
C526        H535   1.086       .  S
C527        C528   1.444       .  A
C527        S531   1.814       .  S
C528        C529   1.426       .  A
C529        C530   1.403       .  A
C529        H536   1.078       .  S
C530        S532   1.805       .  S
S531        H534   1.375       .  S
S532        H533   1.404       .  S
C537        C538   1.403       .  A
C537        C542   1.407       .  A
C538        C539   1.392       .  A
C538        H547   1.083       .  S
C539        C540   1.433       .  A
C539        S543   1.819       .  S
C540        C541   1.422       .  A
C541        C542   1.402       .  A
C541        H548   1.077       .  S
C542        S544   1.808       .  S
S543        H546   1.393       .  S
S544        H545   1.407       .  S
C549        C550   1.396       .  A
C549        C554   1.426       .  A
C550        C551   1.390       .  A
C550        H559   1.081       .  S
C551        C552   1.429       .  A
C551        S555   1.796       .  S
C552        C553   1.401       .  A
C553        C554   1.393       .  A
C553        H560   1.082       .  S
C554        S556   1.799       .  S
S555        H558   1.394       .  S
S556        H557   1.407       .  S
C561        C562   1.406       .  A
C561        C566   1.399       .  A
C562        C563   1.411       .  A
C562        H571   1.082       .  S
C563        C564   1.434       .  A
C563        S567   1.806       .  S
C564        C565   1.411       .  A
C565        C566   1.395       .  A
C565        H572   1.080       .  S
C566        S568   1.804       .  S
S567        H570   1.407       .  S
S568        H569   1.399       .  S
C573        C574   1.418       .  A
C573        C578   1.440       .  A
C574        C575   1.392       .  A
C574        H583   1.065       .  S
C575        C576   1.410       .  A
C575        S579   1.812       .  S
C576        C577   1.394       .  A
C577        C578   1.399       .  A
C577        H584   1.080       .  S
C578        S580   1.821       .  S
S579        H582   1.399   1_565  S
S580        H581   1.397       .  S
C585        C586   1.396       .  A
C585        C590   1.418       .  A
C586        C587   1.407       .  A
C586        H595   1.081       .  S
C587        C588   1.445       .  A
C587        S591   1.810       .  S
C588        C589   1.408       .  A
C589        C590   1.391       .  A
C589        H596   1.081       .  S
C590        S592   1.803       .  S
S591        H594   1.407       .  S
S592        H593   1.399       .  S
C597        C598   1.411       .  A
C597        C602   1.412       .  A
C598        C599   1.414       .  A
C598        H607   1.081       .  S
C599        C600   1.428       .  A
C599        S603   1.812       .  S
C600        C601   1.420       .  A
C601        C602   1.403       .  A
C601        H608   1.076       .  S
C602        S604   1.800       .  S
S603        H606   1.407       .  S
S604        H605   1.407       .  S
C609        C610   1.395       .  A
C609        C614   1.408       .  A
C610        C611   1.400       .  A
C610        H619   1.087       .  S
C611        C612   1.444       .  A
C611        S615   1.803       .  S
C612        C613   1.431       .  A
C613        C614   1.403       .  A
C613        H620   1.073       .  S
C614        S616   1.796       .  S
S615        H618   1.406       .  S
S616        H617   1.407       .  S
C621        C622   1.397       .  A
C621        C626   1.399       .  A
C622        C623   1.411       .  A
C622        H631   1.081       .  S
C623        C624   1.447       .  A
C623        S627   1.814       .  S
C624        C625   1.422       .  A
C625        C626   1.394       .  A
C625        H632   1.069       .  S
C626        S628   1.798       .  S
S627        H630   1.374       .  S
S628        H629   1.407       .  S
C633        C634   1.421       .  A
C633        C638   1.445       .  A
C634        C635   1.399       .  A
C634        H643   1.078       .  S
C635        C636   1.408       .  A
C635        S639   1.808       .  S
C636        C637   1.377       .  A
C637        C638   1.378       .  A
C637        H644   1.086       .  S
C638        S640   1.801       .  S
S639        H642   1.402       .  S
S640        H641   1.410       .  S
C645        C646   1.413       .  A
C645        C650   1.435       .  A
C646        C647   1.385       .  A
C646        H655   1.078       .  S
C647        C648   1.391       .  A
C647        S651   1.805       .  S
C648        C649   1.408       .  A
C649        C650   1.409       .  A
C649        H656   1.063       .  S
C650        S652   1.811       .  S
S651        H654   1.409       .  S
S652        H653   1.407       .  S
C657        C658   1.413       .  A
C657        C662   1.451       .  A
C658        C659   1.389       .  A
C658        H667   1.082       .  S
C659        C660   1.414       .  A
C659        S663   1.807       .  S
C660        C661   1.392       .  A
C661        C662   1.401       .  A
C661        H668   1.080       .  S
C662        S664   1.811       .  S
S663        H666   1.400       .  S
S664        H665   1.408       .  S
C669        C670   1.417       .  A
C669        C674   1.434       .  A
C670        C671   1.399       .  A
C670        H679   1.079       .  S
C671        C672   1.415       .  A
C671        S675   1.812       .  S
C672        C673   1.397       .  A
C673        C674   1.399       .  A
C673        H680   1.083       .  S
C674        S676   1.814       .  S
S675        H678   1.404       .  S
S676        H677   1.407       .  S
C681        C682   1.381       .  A
C681        C686   1.415       .  A
C682        C683   1.373       .  A
C682        H691   1.048       .  S
C683        C684   1.426       .  A
C683        S687   1.809       .  S
C684        C685   1.423       .  A
C685        C686   1.409       .  A
C685        H692   1.083       .  S
C686        S688   1.800       .  S
S687        H690   1.406       .  S
S688        H689   1.407       .  S
C693        C694   1.419       .  A
C693        C698   1.428       .  A
C694        C695   1.402       .  A
C694        H703   1.081       .  S
C695        C696   1.414       .  A
C695        S699   1.790       .  S
C696        C697   1.393       .  A
C697        C698   1.387       .  A
C697        H704   1.051       .  S
C698        S700   1.816       .  S
S699        H702   1.408       .  S
S700        H701   1.402       .  S
C705        C706   1.421       .  A
C705        C710   1.434       .  A
C706        C707   1.389       .  A
C706        H715   1.068       .  S
C707        C708   1.410       .  A
C707        S711   1.809       .  S
C708        C709   1.400       .  A
C709        C710   1.406       .  A
C709        H716   1.077       .  S
C710        S712   1.820       .  S
S711        H714   1.391       .  S
S712        H713   1.394       .  S
C717        C718   1.396       .  A
C717        C722   1.415       .  A
C718        C719   1.396       .  A
C718        H727   1.065       .  S
C719        C720   1.436       .  A
C719        S723   1.801       .  S
C720        C721   1.412       .  A
C721        C722   1.402       .  A
C721        H728   1.076       .  S
C722        S724   1.801       .  S
S723        H726   1.386       .  S
S724        H725   1.407       .  S
C729        C730   1.423       .  A
C729        C734   1.435       .  A
C730        C731   1.403       .  A
C730        H739   1.079       .  S
C731        C732   1.406       .  A
C731        S735   1.802       .  S
C732        C733   1.395       .  A
C733        C734   1.394       .  A
C733        H740   1.083       .  S
C734        S736   1.802       .  S
S735        H738   1.406       .  S
S736        H737   1.408       .  S
C741        C742   1.403       .  A
C741        C746   1.413       .  A
C742        C743   1.395       .  A
C742        H751   1.082       .  S
C743        C744   1.432       .  A
C743        S747   1.818       .  S
C744        C745   1.421       .  A
C745        C746   1.398       .  A
C745        H752   1.078       .  S
C746        S748   1.804       .  S
S747        H750   1.392       .  S
S748        H749   1.381       .  S
C753        C754   1.411       .  A
C753        C758   1.432       .  A
C754        C755   1.387       .  A
C754        H763   1.084       .  S
C755        C756   1.410       .  A
C755        S759   1.799       .  S
C756        C757   1.402       .  A
C757        C758   1.406       .  A
C757        H764   1.084       .  S
C758        S760   1.796       .  S
S759        H762   1.398       .  S
S760        H761   1.408       .  S
C765        C766   1.388       .  A
C765        C770   1.415       .  A
C766        C767   1.380       .  A
C766        H775   1.062       .  S
C767        C768   1.423       .  A
C767        S771   1.801       .  S
C768        C769   1.420       .  A
C769        C770   1.409       .  A
C769        H776   1.082       .  S
C770        S772   1.787       .  S
S771        H774   1.405       .  S
S772        H773   1.408       .  S
C777        C778   1.399       .  A
C777        C782   1.424       .  A
C778        C779   1.396       .  A
C778        H787   1.080       .  S
C779        C780   1.438       .  A
C779        S783   1.807       .  S
C780        C781   1.412       .  A
C781        C782   1.395       .  A
C781        H788   1.077       .  S
C782        S784   1.796       .  S
S783        H786   1.406   1_655  S
S784        H785   1.390       .  S
C789        C790   1.391       .  A
C789        C794   1.415       .  A
C790        C791   1.384       .  A
C790        H799   1.064       .  S
C791        C792   1.432       .  A
C791        S795   1.811       .  S
C792        C793   1.420       .  A
C793        C794   1.410       .  A
C793        H800   1.081       .  S
C794        S796   1.788       .  S
S795        H798   1.398       .  S
S796        H797   1.408       .  S
C801        C802   1.400       .  A
C801        C806   1.434       .  A
C802        C803   1.385       .  A
C802        H811   1.078       .  S
C803        C804   1.426       .  A
C803        S807   1.800       .  S
C804        C805   1.411       .  A
C805        C806   1.400       .  A
C805        H812   1.082       .  S
C806        S808   1.800       .  S
S807        H810   1.405       .  S
S808        H809   1.391       .  S
C813        C814   1.414       .  A
C813        C818   1.432       .  A
C814        C815   1.389       .  A
C814        H823   1.082       .  S
C815        C816   1.406       .  A
C815        S819   1.791       .  S
C816        C817   1.402       .  A
C817        C818   1.396       .  A
C817        H824   1.083       .  S
C818        S820   1.815       .  S
S819        H822   1.408       .  S
S820        H821   1.407       .  S
C825        C826   1.418       .  A
C825        C830   1.433       .  A
C826        C827   1.392       .  A
C826        H835   1.078       .  S
C827        C828   1.417       .  A
C827        S831   1.817       .  S
C828        C829   1.406       .  A
C829        C830   1.407       .  A
C829        H836   1.082       .  S
C830        S832   1.810       .  S
S831        H834   1.403       .  S
S832        H833   1.407       .  S
C837        C838   1.409       .  A
C837        C842   1.439       .  A
C838        C839   1.386       .  A
C838        H847   1.072       .  S
C839        C840   1.402       .  A
C839        S843   1.804   1_554  S
C840        C841   1.407       .  A
C841        C842   1.415       .  A
C841        H848   1.063       .  S
C842        S844   1.798       .  S
S843        H846   1.407   1_556  S
S844        H845   1.407       .  S
C849        C850   1.418       .  A
C849        C854   1.436       .  A
C850        C851   1.407       .  A
C850        H859   1.083       .  S
C851        C852   1.414       .  A
C851        S855   1.799   1_556  S
C852        C853   1.386       .  A
C853        C854   1.383       .  A
C853        H860   1.042       .  S
C854        S856   1.815       .  S
S855        H858   1.407       .  S
S856        H857   1.409       .  S
C861        C862   1.401       .  A
C861        C866   1.414       .  A
C862        C863   1.395       .  A
C862        H871   1.083       .  S
C863        C864   1.430       .  A
C863        S867   1.808       .  S
C864        C865   1.415       .  A
C865        C866   1.405       .  A
C865        H872   1.083       .  S
C866        S868   1.800       .  S
S867        H870   1.407       .  S
S868        H869   1.406       .  S
C873        C874   1.415       .  A
C873        C878   1.407       .  A
C874        C875   1.415       .  A
C874        H883   1.071       .  S
C875        C876   1.427       .  A
C875        S879   1.794       .  S
C876        C877   1.413       .  A
C877        C878   1.381       .  A
C877        H884   1.071   1_556  S
C878        S880   1.812       .  S
S879        H882   1.408       .  S
S880        H881   1.402       .  S
C885        C886   1.405       .  A
C885        C890   1.395       .  A
C886        C887   1.407       .  A
C886        H895   1.077       .  S
C887        C888   1.443       .  A
C887        S891   1.807       .  S
C888        C889   1.420       .  A
C889        C890   1.406       .  A
C889        H896   1.079       .  S
C890        S892   1.811       .  S
S891        H894   1.408       .  S
S892        H893   1.408       .  S
C897        C898   1.424       .  A
C897        C902   1.439       .  A
C898        C899   1.398       .  A
C898        H907   1.078       .  S
C899        C900   1.402       .  A
C899        S903   1.803       .  S
C900        C901   1.392       .  A
C901        C902   1.400       .  A
C901        H908   1.085       .  S
C902        S904   1.793       .  S
S903        H906   1.405       .  S
S904        H905   1.409   1_556  S
C909        C910   1.405       .  A
C909        C914   1.410       .  A
C910        C911   1.413       .  A
C910        H919   1.082       .  S
C911        C912   1.437       .  A
C911        S915   1.800       .  S
C912        C913   1.406       .  A
C913        C914   1.389       .  A
C913        H920   1.063       .  S
C914        S916   1.806       .  S
S915        H918   1.405       .  S
S916        H917   1.402       .  S
C921        C922   1.431       .  A
C921        C926   1.442       .  A
C922        C923   1.399       .  A
C922        H931   1.070       .  S
C923        C924   1.409       .  A
C923        S927   1.814       .  S
C924        C925   1.397       .  A
C925        C926   1.402       .  A
C925        H932   1.072       .  S
C926        S928   1.821       .  S
S927        H930   1.398       .  S
S928        H929   1.398       .  S
C933        C934   1.398       .  A
C933        C938   1.411       .  A
C934        C935   1.383       .  A
C934        H943   1.066       .  S
C935        C936   1.419       .  A
C935        S939   1.817       .  S
C936        C937   1.419       .  A
C937        C938   1.397       .  A
C937        H944   1.077       .  S
C938        S940   1.804       .  S
S939        H942   1.407       .  S
S940        H941   1.400       .  S
C945        C946   1.395       .  A
C945        C950   1.413       .  A
C946        C947   1.392       .  A
C946        H955   1.082       .  S
C947        C948   1.433       .  A
C947        S951   1.817       .  S
C948        C949   1.411       .  A
C949        C950   1.398       .  A
C949        H956   1.084       .  S
C950        S952   1.804       .  S
S951        H954   1.407       .  S
S952        H953   1.403       .  S
C957        C958   1.388       .  A
C957        C962   1.413       .  A
C958        C959   1.384       .  A
C958        H967   1.077       .  S
C959        C960   1.436       .  A
C959        S963   1.803       .  S
C960        C961   1.416       .  A
C961        C962   1.401       .  A
C961        H968   1.083       .  S
C962        S964   1.802       .  S
S963        H966   1.405       .  S
S964        H965   1.404       .  S
C969        C970   1.422       .  A
C969        C974   1.437       .  A
C970        C971   1.415       .  A
C970        H979   1.079       .  S
C971        C972   1.417       .  A
C971        S975   1.798       .  S
C972        C973   1.389       .  A
C973        C974   1.390       .  A
C973        H980   1.070       .  S
C974        S976   1.809       .  S
S975        H978   1.394       .  S
S976        H977   1.408       .  S
C981        C982   1.401       .  A
C981        C986   1.416       .  A
C982        C983   1.392       .  A
C982        H991   1.078   1_455  S
C983        C984   1.437       .  A
C983        S987   1.811       .  S
C984        C985   1.420       .  A
C985        C986   1.399       .  A
C985        H992   1.079       .  S
C986        S988   1.800       .  S
S987        H990   1.407   1_455  S
S988        H989   1.395       .  S
C993        C994   1.407       .  A
C993        C998   1.411       .  A
C994        C995   1.412       .  A
C994       H1003   1.081       .  S
C995        C996   1.450       .  A
C995        S999   1.814       .  S
C996        C997   1.398       .  A
C997        C998   1.380       .  A
C997       H1004   1.080       .  S
C998       S1000   1.804       .  S
S999       H1002   1.392       .  S
S1000      H1001   1.407   1_655  S
C1005      C1006   1.421       .  A
C1005      C1010   1.449       .  A
C1006      C1007   1.389       .  A
C1006      H1015   1.079       .  S
C1007      C1008   1.399       .  A
C1007      S1011   1.794       .  S
C1008      C1009   1.392       .  A
C1009      C1010   1.394       .  A
C1009      H1016   1.084       .  S
C1010      S1012   1.802       .  S
S1011      H1014   1.408       .  S
S1012      H1013   1.385       .  S
C1017      C1018   1.387       .  A
C1017      C1022   1.413       .  A
C1018      C1019   1.375       .  A
C1018      H1027   1.076       .  S
C1019      C1020   1.424       .  A
C1019      S1023   1.806       .  S
C1020      C1021   1.418       .  A
C1021      C1022   1.401       .  A
C1021      H1028   1.082       .  S
C1022      S1024   1.804       .  S
S1023      H1026   1.402       .  S
S1024      H1025   1.402       .  S
C1029      C1030   1.413       .  A
C1029      C1034   1.449       .  A
C1030      C1031   1.399       .  A
C1030      H1039   1.084       .  S
C1031      C1032   1.413       .  A
C1031      S1035   1.799       .  S
C1032      C1033   1.392       .  A
C1033      C1034   1.405       .  A
C1033      H1040   1.083       .  S
C1034      S1036   1.809       .  S
S1035      H1038   1.399       .  S
S1036      H1037   1.408       .  S
C1041      C1042   1.397       .  A
C1041      C1046   1.403       .  A
C1042      C1043   1.409       .  A
C1042      H1051   1.082       .  S
C1043      C1044   1.448       .  A
C1043      S1047   1.815       .  S
C1044      C1045   1.420       .  A
C1045      C1046   1.396       .  A
C1045      H1052   1.078       .  S
C1046      S1048   1.806       .  S
S1047      H1050   1.407       .  S
S1048      H1049   1.406       .  S
C1053      C1054   1.403       .  A
C1053      C1058   1.408       .  A
C1054      C1055   1.401       .  A
C1054      H1063   1.084       .  S
C1055      C1056   1.437       .  A
C1055      S1059   1.820       .  S
C1056      C1057   1.426       .  A
C1057      C1058   1.400       .  A
C1057      H1064   1.075       .  S
C1058      S1060   1.807       .  S
S1059      H1062   1.393       .  S
S1060      H1061   1.389       .  S
C1065      C1066   1.422       .  A
C1065      C1070   1.426       .  A
C1066      C1067   1.400       .  A
C1066      H1075   1.078       .  S
C1067      C1068   1.410       .  A
C1067      S1071   1.803       .  S
C1068      C1069   1.411       .  A
C1069      C1070   1.397       .  A
C1069      H1076   1.083       .  S
C1070      S1072   1.811       .  S
S1071      H1074   1.407       .  S
S1072      H1073   1.396       .  S
C1077      C1078   1.399       .  A
C1077      C1082   1.418       .  A
C1078      C1079   1.397       .  A
C1078      H1087   1.081       .  S
C1079      C1080   1.429       .  A
C1079      S1083   1.809       .  S
C1080      C1081   1.412       .  A
C1081      C1082   1.392       .  A
C1081      H1088   1.084       .  S
C1082      S1084   1.806       .  S
S1083      H1086   1.394       .  S
S1084      H1085   1.402       .  S
C1089      C1090   1.414       .  A
C1089      C1094   1.413       .  A
C1090      C1091   1.419       .  A
C1090      H1099   1.082       .  S
C1091      C1092   1.442       .  A
C1091      S1095   1.796       .  S
C1092      C1093   1.399       .  A
C1093      C1094   1.381       .  A
C1093      H1100   1.078   1_554  S
C1094      S1096   1.774       .  S
S1095      H1098   1.406       .  S
S1096      H1097   1.404       .  S
C1101      C1102   1.403       .  A
C1101      C1106   1.414       .  A
C1102      C1103   1.404       .  A
C1102      H1111   1.079       .  S
C1103      C1104   1.426       .  A
C1103      S1107   1.808       .  S
C1104      C1105   1.416       .  A
C1105      C1106   1.382       .  A
C1105      H1112   1.083       .  S
C1106      S1108   1.808       .  S
S1107      H1110   1.402       .  S
S1108      H1109   1.403       .  S
C1113      C1114   1.419       .  A
C1113      C1118   1.432       .  A
C1114      C1115   1.403       .  A
C1114      H1123   1.078       .  S
C1115      C1116   1.417       .  A
C1115      S1119   1.800       .  S
C1116      C1117   1.409       .  A
C1117      C1118   1.416       .  A
C1117      H1124   1.083       .  S
C1118      S1120   1.806       .  S
S1119      H1122   1.407       .  S
S1120      H1121   1.406       .  S
C1125      C1126   1.414       .  A
C1125      C1130   1.447       .  A
C1126      C1127   1.396       .  A
C1126      H1135   1.061       .  S
C1127      C1128   1.403       .  A
C1127      S1131   1.798       .  S
C1128      C1129   1.408       .  A
C1129      C1130   1.424       .  A
C1129      H1136   1.081       .  S
C1130      S1132   1.810       .  S
S1131      H1134   1.405       .  S
S1132      H1133   1.407       .  S
C1137      C1138   1.395       .  A
C1137      C1142   1.422       .  A
C1138      C1139   1.403       .  A
C1138      H1147   1.085       .  S
C1139      C1140   1.444       .  A
C1139      S1143   1.812       .  S
C1140      C1141   1.406       .  A
C1141      C1142   1.403       .  A
C1141      H1148   1.080       .  S
C1142      S1144   1.800       .  S
S1143      H1146   1.394       .  S
S1144      H1145   1.408       .  S
C1149      C1150   1.421       .  A
C1149      C1154   1.434       .  A
C1150      C1151   1.401       .  A
C1150      H1159   1.079       .  S
C1151      C1152   1.411       .  A
C1151      S1155   1.799       .  S
C1152      C1153   1.394       .  A
C1153      C1154   1.386       .  A
C1153      H1160   1.084       .  S
C1154      S1156   1.797       .  S
S1155      H1158   1.398       .  S
S1156      H1157   1.409       .  S
C1161      C1162   1.429       .  A
C1161      C1166   1.437       .  A
C1162      C1163   1.403       .  A
C1162      H1171   1.080       .  S
C1163      C1164   1.412       .  A
C1163      S1167   1.805       .  S
C1164      C1165   1.397       .  A
C1165      C1166   1.395       .  A
C1165      H1172   1.086       .  S
C1166      S1168   1.800       .  S
S1167      H1170   1.401       .  S
S1168      H1169   1.392       .  S
C1173      C1174   1.403       .  A
C1173      C1178   1.413       .  A
C1174      C1175   1.408       .  A
C1174      H1183   1.083       .  S
C1175      C1176   1.436       .  A
C1175      S1179   1.798       .  S
C1176      C1177   1.413       .  A
C1177      C1178   1.389       .  A
C1177      H1184   1.084       .  S
C1178      S1180   1.804       .  S
S1179      H1182   1.407       .  S
S1180      H1181   1.404       .  S
C1185      C1186   1.429       .  A
C1185      C1190   1.435       .  A
C1186      C1187   1.402       .  A
C1186      H1195   1.079       .  S
C1187      C1188   1.409       .  A
C1187      S1191   1.805       .  S
C1188      C1189   1.405       .  A
C1189      C1190   1.403       .  A
C1189      H1196   1.085       .  S
C1190      S1192   1.805       .  S
S1191      H1194   1.398       .  S
S1192      H1193   1.393       .  S
C1197      C1198   1.416       .  A
C1197      C1202   1.448       .  A
C1198      C1199   1.409       .  A
C1198      H1207   1.084       .  S
C1199      C1200   1.419       .  A
C1199      S1203   1.785       .  S
C1200      C1201   1.404       .  A
C1201      C1202   1.395       .  A
C1201      H1208   1.083       .  S
C1202      S1204   1.829       .  S
S1203      H1206   1.391       .  S
S1204      H1205   1.393       .  S
C1209      C1210   1.395       .  A
C1209      C1214   1.412       .  A
C1210      C1211   1.405       .  A
C1210      H1219   1.081       .  S
C1211      C1212   1.437       .  A
C1211      S1215   1.791       .  S
C1212      C1213   1.420       .  A
C1213      C1214   1.404       .  A
C1213      H1220   1.083       .  S
C1214      S1216   1.796       .  S
S1215      H1218   1.393       .  S
S1216      H1217   1.405       .  S
C1221      C1222   1.421       .  A
C1221      C1226   1.436       .  A
C1222      C1223   1.411       .  A
C1222      H1231   1.078       .  S
C1223      C1224   1.423       .  A
C1223      S1227   1.793       .  S
C1224      C1225   1.399       .  A
C1225      C1226   1.409       .  A
C1225      H1232   1.081       .  S
C1226      S1228   1.788       .  S
S1227      H1230   1.392       .  S
S1228      H1229   1.406       .  S
C1233      C1234   1.407       .  A
C1233      C1238   1.442       .  A
C1234      C1235   1.395       .  A
C1234      H1243   1.084       .  S
C1235      C1236   1.416       .  A
C1235      S1239   1.792       .  S
C1236      C1237   1.400       .  A
C1237      C1238   1.407       .  A
C1237      H1244   1.082       .  S
C1238      S1240   1.810       .  S
S1239      H1242   1.407       .  S
S1240      H1241   1.406       .  S
C1245      C1246   1.427       .  A
C1245      C1250   1.435       .  A
C1246      C1247   1.396       .  A
C1246      H1255   1.080       .  S
C1247      C1248   1.407       .  A
C1247      S1251   1.805       .  S
C1248      C1249   1.401       .  A
C1249      C1250   1.390       .  A
C1249      H1256   1.082       .  S
C1250      S1252   1.814       .  S
S1251      H1254   1.396       .  S
S1252      H1253   1.389       .  S
C1257      C1258   1.421       .  A
C1257      C1262   1.436       .  A
C1258      C1259   1.399       .  A
C1258      H1267   1.082       .  S
C1259      C1260   1.409       .  A
C1259      S1263   1.798       .  S
C1260      C1261   1.401       .  A
C1261      C1262   1.406       .  A
C1261      H1268   1.069       .  S
C1262      S1264   1.800       .  S
S1263      H1266   1.406       .  S
S1264      H1265   1.405       .  S
C1269      C1270   1.400       .  A
C1269      C1274   1.395       .  A
C1270      C1271   1.406       .  A
C1270      H1279   1.063       .  S
C1271      C1272   1.449       .  A
C1271      S1275   1.820       .  S
C1272      C1273   1.420       .  A
C1273      C1274   1.391       .  A
C1273      H1280   1.070       .  S
C1274      S1276   1.795       .  S
S1275      H1278   1.379       .  S
S1276      H1277   1.407       .  S
C1281      C1282   1.420       .  A
C1281      C1286   1.442       .  A
C1282      C1283   1.400       .  A
C1282      H1291   1.077       .  S
C1283      C1284   1.407       .  A
C1283      S1287   1.807       .  S
C1284      C1285   1.398       .  A
C1285      C1286   1.393       .  A
C1285      H1292   1.084       .  S
C1286      S1288   1.816       .  S
S1287      H1290   1.395       .  S
S1288      H1289   1.385       .  S
C1293      C1294   1.421       .  A
C1293      C1298   1.445       .  A
C1294      C1295   1.393       .  A
C1294      H1303   1.065       .  S
C1295      C1296   1.403       .  A
C1295      S1299   1.798       .  S
C1296      C1297   1.398       .  A
C1297      C1298   1.403       .  A
C1297      H1304   1.081       .  S
C1298      S1300   1.789       .  S
S1299      H1302   1.392       .  S
S1300      H1301   1.406       .  S
C1305      C1306   1.421       .  A
C1305      C1310   1.433       .  A
C1306      C1307   1.400       .  A
C1306      H1315   1.077       .  S
C1307      C1308   1.406       .  A
C1307      S1311   1.801       .  S
C1308      C1309   1.402       .  A
C1309      C1310   1.396       .  A
C1309      H1316   1.084       .  S
C1310      S1312   1.818       .  S
S1311      H1314   1.407       .  S
S1312      H1313   1.393       .  S
C1317      C1318   1.403       .  A
C1317      C1322   1.386       .  A
C1318      C1319   1.405       .  A
C1318      H1327   1.064       .  S
C1319      C1320   1.444       .  A
C1319      S1323   1.813       .  S
C1320      C1321   1.414       .  A
C1321      C1322   1.384       .  A
C1321      H1328   1.077       .  S
C1322      S1324   1.790       .  S
S1323      H1326   1.389       .  S
S1324      H1325   1.404       .  S
C1329      C1330   1.383       .  A
C1329      C1334   1.410       .  A
C1330      C1331   1.383       .  A
C1330      H1339   1.079       .  S
C1331      C1332   1.442       .  A
C1331      S1335   1.806       .  S
C1332      C1333   1.420       .  A
C1333      C1334   1.399       .  A
C1333      H1340   1.076       .  S
C1334      S1336   1.802       .  S
S1335      H1338   1.409       .  S
S1336      H1337   1.397       .  S
C1341      C1342   1.418       .  A
C1341      C1346   1.435       .  A
C1342      C1343   1.413       .  A
C1342      H1351   1.078       .  S
C1343      C1344   1.418       .  A
C1343      S1347   1.796       .  S
C1344      C1345   1.393       .  A
C1345      C1346   1.391       .  A
C1345      H1352   1.070       .  S
C1346      S1348   1.808       .  S
S1347      H1350   1.407       .  S
S1348      H1349   1.409       .  S
C1353      C1354   1.408       .  A
C1353      C1358   1.430       .  A
C1354      C1355   1.379       .  A
C1354      H1363   1.073       .  S
C1355      C1356   1.410       .  A
C1355      S1359   1.801       .  S
C1356      C1357   1.414       .  A
C1357      C1358   1.416       .  A
C1357      H1364   1.078       .  S
C1358      S1360   1.798       .  S
S1359      H1362   1.404       .  S
S1360      H1361   1.406       .  S
C1365      C1366   1.416       .  A
C1365      C1370   1.438       .  A
C1366      C1367   1.400       .  A
C1366      H1375   1.083       .  S
C1367      C1368   1.414       .  A
C1367      S1371   1.804       .  S
C1368      C1369   1.401       .  A
C1369      C1370   1.409       .  A
C1369      H1376   1.080       .  S
C1370      S1372   1.807       .  S
S1371      H1374   1.399       .  S
S1372      H1373   1.399       .  S
C1377      C1378   1.409       .  A
C1377      C1382   1.413       .  A
C1378      C1379   1.416       .  A
C1378      H1387   1.079       .  S
C1379      C1380   1.436       .  A
C1379      S1383   1.802       .  S
C1380      C1381   1.407       .  A
C1381      C1382   1.386       .  A
C1381      H1388   1.077       .  S
C1382      S1384   1.805       .  S
S1383      H1386   1.403       .  S
S1384      H1385   1.407       .  S
C1389      C1390   1.411       .  A
C1389      C1394   1.436       .  A
C1390      C1391   1.394       .  A
C1390      H1399   1.082       .  S
C1391      C1392   1.410       .  A
C1391      S1395   1.796       .  S
C1392      C1393   1.395       .  A
C1393      C1394   1.401       .  A
C1393      H1400   1.085       .  S
C1394      S1396   1.798       .  S
S1395      H1398   1.407       .  S
S1396      H1397   1.400       .  S
C1401      C1402   1.421       .  A
C1401      C1406   1.438       .  A
C1402      C1403   1.403       .  A
C1402      H1411   1.071       .  S
C1403      C1404   1.416       .  A
C1403      S1407   1.810       .  S
C1404      C1405   1.388       .  A
C1405      C1406   1.395       .  A
C1405      H1412   1.077       .  S
C1406      S1408   1.796       .  S
S1407      H1410   1.399       .  S
S1408      H1409   1.404       .  S
