geometry optimzed in LAMMPS
_audit_creation_date              2020-12-01 
_audit_creation_method            'lammps2cif' 
_symmetry_space_group_name_H-M    'P1' 
_symmetry_Int_Tables_number       1 
_symmetry_cell_setting            triclinic 
loop_ 
_symmetry_equiv_pos_as_xyz 
  x,y,z 
_cell_length_a                    43.146406 
_cell_length_b                    41.839085172862106 
_cell_length_c                    25.18002035987284 
_cell_angle_alpha                 87.8249544997952 
_cell_angle_beta                  90.08079147043883 
_cell_angle_gamma                 120.88937512077804 
loop_ 
_atom_site_label 
_atom_site_type_symbol 
_atom_site_fract_x 
_atom_site_fract_y 
_atom_site_fract_z 
_atom_site_charge 
C1          C  0.25522966  0.37293566  0.17576967     0.79300
N2          N  0.26074790  0.40600820  0.15407519    -0.79000
C3          C  0.25656585  0.40944906  0.10095056     0.81700
N4          N  0.24475721  0.37936549  0.07075750    -0.78900
C5          C  0.23825304  0.34636947  0.09232301     0.81800
N6          N  0.24429277  0.34337508  0.14453806    -0.80700
C7          C  0.25595626  0.38341460  0.32607621     0.79300
N8          N  0.25830848  0.35485976  0.35002426    -0.79000
C9          C  0.25312531  0.34846222  0.40372582     0.81700
N10         N  0.24326572  0.36882362  0.43219217    -0.78900
C11         C  0.23970251  0.39615059  0.40805224     0.81800
N12         N  0.24700452  0.40400856  0.35544811    -0.80700
C13         C  0.08397414  0.37378483  0.34084749     0.79300
N14         N  0.05185154  0.34545011  0.36247502    -0.79000
C15         C  0.04526291  0.34342859  0.41607877     0.81700
N16         N  0.07155994  0.36920635  0.44711161    -0.78900
C17         C  0.10397690  0.39586721  0.42516571     0.81800
N18         N  0.10969964  0.39804665  0.37258713    -0.80700
C19         C  0.07953493  0.36351300  0.19054888     0.79300
N20         N  0.11267423  0.38945672  0.16820045    -0.79000
C21         C  0.11957190  0.38657362  0.11604800     0.81700
N22         N  0.09426431  0.35854663  0.08822590    -0.78900
C23         C  0.06184042  0.33390789  0.10997748     0.81800
N24         N  0.05426759  0.33650451  0.16081204    -0.80700
C25         C  0.08767897  0.20241019  0.17141231     0.79300
N26         N  0.11354327  0.20126842  0.14229198    -0.79000
C27         C  0.11086928  0.19836856  0.08886799     0.81700
N28         N  0.08272277  0.19799403  0.06415858    -0.78900
C29         C  0.05727646  0.20043636  0.09240822     0.81800
N30         N  0.05972882  0.20270569  0.14627059    -0.80700
C31         C  0.07345074  0.20842410  0.32117517     0.79300
N32         N  0.10540667  0.21498857  0.34246635    -0.79000
C33         C  0.11126761  0.22193334  0.39495454     0.81700
N34         N  0.08618136  0.22269120  0.42498514    -0.78900
C35         C  0.05479064  0.21607275  0.40513528     0.81800
N36         N  0.04810746  0.20921677  0.35278171    -0.80700
C37         C  0.35741336  0.10095866  0.33489769     0.79300
N38         N  0.38901334  0.12867543  0.35326771    -0.79000
C39         C  0.39350002  0.13341646  0.40587586     0.81700
N40         N  0.36558113  0.11162463  0.44026904    -0.78900
C41         C  0.33363815  0.08432673  0.42182388     0.81800
N42         N  0.32983677  0.07850055  0.36913472    -0.80700
C43         C  0.37159657  0.11508720  0.18616688     0.79300
N44         N  0.39308292  0.14312835  0.15065129    -0.79000
C45         C  0.38700612  0.13829348  0.09796980     0.81700
N46         N  0.36032019  0.10500014  0.08115686    -0.78900
C47         C  0.33941562  0.07676463  0.11684191     0.81800
N48         N  0.34463004  0.08209199  0.16916120    -0.80700
C49         C  0.35844584  0.26747797  0.17405133     0.79300
N50         N  0.37624985  0.25621567  0.14284696    -0.79000
C51         C  0.36804737  0.24938966  0.09099661     0.81700
N52         N  0.34232077  0.25495029  0.06956714    -0.78900
C53         C  0.32399700  0.26627517  0.09994843     0.81800
N54         N  0.33166447  0.27207610  0.15271648    -0.80700
C55         C  0.36361632  0.29165814  0.32184255     0.79300
N56         N  0.33802021  0.29114404  0.35327627    -0.79000
C57         C  0.34052546  0.29097968  0.40670588     0.81700
N58         N  0.36945216  0.29179316  0.42934768    -0.78900
C59         C  0.39561088  0.29204995  0.39889885     0.81800
N60         N  0.39206060  0.29075335  0.34470113    -0.80700
C61         C  0.18508642  0.08615386  0.33213827     0.79300
N62         N  0.18300991  0.11594062  0.34816001    -0.79000
C63         C  0.18634341  0.12405098  0.40050769     0.81700
N64         N  0.19307558  0.10325681  0.43612645    -0.78900
C65         C  0.19566046  0.07406155  0.42042894     0.81800
N66         N  0.19125925  0.06535244  0.36855718    -0.79800
C67         C  0.17295742  0.08822553  0.18033651     0.79300
N68         N  0.17951665  0.06249519  0.15935389    -0.79000
C69         C  0.18023562  0.06000332  0.10540624     0.81700
N70         N  0.17574366  0.08422309  0.07318672    -0.78900
C71         C  0.17027347  0.11046217  0.09405821     0.81800
N72         N  0.16915701  0.11225934  0.14742549    -0.80700
O73         O  0.22721449  0.28420571  0.41842110    -0.81100
O74         O  0.21253670  0.18900977  0.40836623    -0.81100
O75         O  0.30859065  0.28796522  0.48546140    -0.81100
O76         O  0.15689922  0.21087805  0.42882022    -0.81000
O77         O  0.27850804  0.25206780  0.41991687    -0.81200
O78         O  0.15838933  0.26290790  0.44683254    -0.81100
O79         O  0.16727400  0.15312221  0.46027810    -0.81100
O80         O  0.26728709  0.32043718  0.47603103    -0.81100
C81         C  0.25164849  0.31616445  0.43130373     1.08600
C82         C  0.18633171  0.15689767  0.41979515     1.08500
C83         C  0.30751956  0.27780619  0.43827646     1.08700
C84         C  0.14489281  0.23327777  0.42162074     1.08500
O85         O  0.17276563  0.23044171  0.06766042    -0.81100
O86         O  0.26209864  0.24247327  0.08607835    -0.81100
O87         O  0.24556178  0.29959665  0.05458530    -0.81100
O88         O  0.16660177  0.14133801  0.01421421    -0.81000
O89         O  0.20123944  0.17467313  0.07824642    -0.81100
O90         O  0.19848152  0.30338245  0.03062472    -0.81100
O91         O  0.13611969  0.18597543  0.01404108    -0.81000
O92         O  0.29898398  0.28637371  0.03153295    -0.81100
Co93       Co  0.20223097  0.26256605  0.00684511     1.51500
Co94       Co  0.24366768  0.20446419  0.03167670     1.51700
Co95       Co  0.25667318  0.27962973  0.98754425     1.51600
Co96       Co  0.17111058  0.18268471  0.96319715     1.51500
O97         O  0.21666407  0.22569007  0.99528896    -1.43000
C98         C  0.14162684  0.20371424  0.05680462     1.08600
C99         C  0.29387089  0.26802852  0.07512636     1.08700
C100        C  0.22651893  0.31499592  0.05818833     1.08600
C101        C  0.17786003  0.14359104  0.06144872     1.08600
O102        O  0.04446712  0.30360679  0.03089949    -0.81100
O103        O  0.39420776  0.17154706  0.01666090    -0.81100
O104        O  0.42399200  0.25740158  0.07187766    -0.81100
O105        O  0.49710328  0.17933400  0.02339074    -0.81000
O106        O  0.38317128  0.23020276  0.01117914    -0.81200
O107        O  0.03156665  0.23521218  0.05465036    -0.81100
O108        O  0.44298861  0.18850798  0.06578067    -0.81100
O109        O  0.49571984  0.29520024  0.07845753    -0.81100
C110        C  0.03487623  0.30709488  0.07639959     1.08600
C111        C  0.40912974  0.16841013  0.05901747     1.08500
C112        C  0.39208912  0.24363330  0.05706917     1.08700
C113        C  0.02917074  0.20322221  0.06306809     1.08500
O114        O  0.04975377  0.25312806  0.46601522    -0.81100
O115        O  0.42679192  0.25943983  0.40983964    -0.81100
O116        O  0.50736318  0.33200403  0.47471196    -0.81100
O117        O  0.43937176  0.16215861  0.46759910    -0.81000
O118        O  0.43329582  0.19748581  0.40957198    -0.81100
O119        O  0.00581734  0.27764010  0.43127532    -0.81100
O120        O  0.50689364  0.21796324  0.43581110    -0.81000
O121        O  0.43235970  0.29683463  0.47304761    -0.81100
Co122      Co  0.01735622  0.25874032  0.98957218     1.51500
Co123      Co  0.41007909  0.21429436  0.96188357     1.51700
Co124      Co  0.46203403  0.29124697  0.02167863     1.51600
Co125      Co  0.47462276  0.20674085  0.00179081     1.51500
O126        O  0.45938686  0.24485021  0.99335997    -1.43000
C127        C  0.03322359  0.22369412  0.44044418     1.08600
C128        C  0.42175159  0.28449139  0.42666513     1.08700
C129        C  0.01371480  0.31017384  0.44317290     1.08600
C130        C  0.42584454  0.16544829  0.42503859     1.08600
O131        O  0.23453677  0.44981630  0.08761118    -0.81100
O132        O  0.21508005  0.03044000  0.10035600    -0.81100
O133        O  0.31633982  0.02847206  0.05863769    -0.81100
O134        O  0.16386056  0.44682353  0.07663925    -0.81000
O135        O  0.27814395  0.03109008  0.11003150    -0.81200
O136        O  0.16699107  0.39727255  0.05932533    -0.81100
O137        O  0.18132197  0.02542823  0.03361674    -0.81100
O138        O  0.27647588  0.45587248  0.03181896    -0.81100
C139        C  0.25865427  0.44269129  0.07564432     1.08600
C140        C  0.19118428  0.03563876  0.08036097     1.08500
C141        C  0.31025124  0.04176063  0.09820570     1.08700
C142        C  0.15281618  0.41183977  0.08557925     1.08500
O143        O  0.16310107  0.42108963  0.46101848    -0.81100
O144        O  0.29321218  0.07342241  0.49285848    -0.81100
O145        O  0.24558345  0.45326673  0.42487980    -0.81100
O146        O  0.18133721  0.01648239  0.46155900    -0.81000
O147        O  0.22719100  0.06717685  0.49291430    -0.81100
O148        O  0.21506007  0.40793568  0.48369105    -0.81100
O149        O  0.13201594  0.44619561  0.47917267    -0.81000
O150        O  0.29077786  0.02582418  0.45850950    -0.81100
Co151      Co  0.20247136  0.44325040  0.02785787     1.51500
Co152      Co  0.25625494  0.04363371  0.05072885     1.51700
Co153      Co  0.27982323  0.49573741  0.97891828     1.51600
Co154      Co  0.18291670  0.47864902  0.00392289     1.51500
O155        O  0.23636185  0.49692881  0.00864559    -1.43000
C156        C  0.13377587  0.42138552  0.45735435     1.08600
C157        C  0.30411036  0.06014716  0.45880912     1.08700
C158        C  0.23166100  0.41955942  0.43927283     1.08600
C159        C  0.20208043  0.05141788  0.45977405     1.08600
C160        C  0.18201401  0.07662582  0.27547653    -0.17300
C161        C  0.17325945  0.09393243  0.23797951    -0.32500
H162        H  0.18783702  0.05518404  0.26424916     0.11700
H163        H  0.16737251  0.11522101  0.24982253     0.12200
C164        C  0.36941770  0.27433154  0.23048823    -0.17300
C165        C  0.35658239  0.28911245  0.26395091    -0.32500
H166        H  0.38812412  0.26627159  0.24495158     0.11700
H167        H  0.33726628  0.29636395  0.24962174     0.12200
C168        C  0.35261357  0.09568415  0.27820298    -0.17300
C169        C  0.37700482  0.12061433  0.24281462    -0.32500
H170        H  0.32814674  0.07121412  0.26546199     0.11700
H171        H  0.40084192  0.14577414  0.25543740     0.12200
C172        C  0.09200365  0.20515529  0.22965161    -0.17300
C173        C  0.06713134  0.20366939  0.26334256    -0.32500
H174        H  0.11695209  0.20857297  0.24521831     0.11700
H175        H  0.04197674  0.19990179  0.24812336     0.12200
C176        C  0.09371835  0.37826094  0.28405927    -0.17300
C177        C  0.06958556  0.36197083  0.24676968    -0.32500
H178        H  0.12222890  0.39623250  0.27255573     0.11700
H179        H  0.04112871  0.34394587  0.25845294     0.12200
C180        C  0.25807124  0.36727094  0.23340904    -0.17300
C181        C  0.26075647  0.39181458  0.26830323    -0.32500
H182        H  0.25442502  0.34068188  0.24771353     0.11700
H183        H  0.26272012  0.41764354  0.25392147     0.12200
C184        C  0.24866687  0.36799585  0.67778553     0.79300
N185        N  0.25432634  0.40022448  0.65325888    -0.79000
C186        C  0.25011463  0.40198074  0.59995621     0.81700
N187        N  0.23852632  0.37082523  0.57166981    -0.78900
C188        C  0.23186723  0.33831209  0.59606491     0.81800
N189        N  0.23773365  0.33730361  0.64893383    -0.80700
C190        C  0.25562355  0.38726576  0.82646557     0.79300
N191        N  0.26060490  0.36088955  0.85189017    -0.79000
C192        C  0.25857848  0.35746858  0.90594703     0.81700
N193        N  0.24904639  0.37816870  0.93374009    -0.78900
C194        C  0.24325433  0.40362272  0.90875772     0.81800
N195        N  0.24743261  0.40889382  0.85521427    -0.80700
C196        C  0.08883274  0.38018804  0.83892489     0.79300
N197        N  0.05685405  0.35295270  0.86148862    -0.79000
C198        C  0.05034776  0.35216724  0.91448082     0.81700
N199        N  0.07642747  0.37824734  0.94502871    -0.78900
C200        C  0.10887666  0.40458748  0.92342063     0.81800
N201        N  0.11512805  0.40537377  0.87034916    -0.80700
C202        C  0.07633126  0.35800781  0.69019247     0.79300
N203        N  0.10803699  0.38343795  0.66469227    -0.79000
C204        C  0.11308437  0.37924618  0.61262666     0.81700
N205        N  0.08703206  0.35025935  0.58681222    -0.78900
C206        C  0.05536786  0.32561424  0.61113276     0.81800
N207        N  0.04980082  0.32957797  0.66285623    -0.80700
C208        C  0.08142091  0.19826377  0.66777905     0.79300
N209        N  0.10592773  0.19752710  0.63487137    -0.79000
C210        C  0.09909242  0.19103535  0.58265462     0.81700
N211        N  0.06788235  0.18600183  0.56264474    -0.78900
C212        C  0.04330740  0.18760783  0.59409028     0.81800
N213        N  0.05026580  0.19440074  0.64696453    -0.80700
C214        C  0.08027154  0.21533231  0.81882456     0.79300
N215        N  0.11167746  0.21912511  0.83912140    -0.79000
C216        C  0.12068273  0.22982388  0.89040082     0.81700
N217        N  0.09865314  0.23630302  0.91981279    -0.78900
C218        C  0.06747663  0.23138208  0.90115736     0.81800
N219        N  0.05798968  0.22080964  0.85066808    -0.80700
C220        C  0.35769385  0.09517480  0.83253177     0.79300
N221        N  0.38838110  0.12486271  0.85061152    -0.79000
C222        C  0.39270284  0.13022786  0.90350459     0.81700
N223        N  0.36564816  0.10714608  0.93807782    -0.78900
C224        C  0.33473527  0.07810356  0.92036446     0.81800
N225        N  0.33104335  0.07164382  0.86763364    -0.80700
C226        C  0.37045047  0.10935316  0.68105533     0.79300
N227        N  0.39166159  0.13900114  0.64759764    -0.79000
C228        C  0.38634752  0.13674439  0.59451339     0.81700
N229        N  0.36053587  0.10403141  0.57464899    -0.78900
C230        C  0.33996866  0.07382112  0.60769544     0.81800
N231        N  0.34424308  0.07681683  0.66106322    -0.80700
C232        C  0.35357609  0.25018295  0.67621583     0.79300
N233        N  0.37749491  0.24629354  0.64670552    -0.79000
C234        C  0.36967791  0.23495183  0.59648897     0.81700
N235        N  0.33819865  0.22729377  0.57585832    -0.78900
C236        C  0.31454041  0.23238997  0.60314594     0.81800
N237        N  0.32217468  0.24455318  0.65385478    -0.80700
C238        C  0.35032701  0.27177943  0.82149911     0.79300
N239        N  0.32189405  0.26382507  0.85323503    -0.79000
C240        C  0.32431562  0.26176209  0.90643706     0.81700
N241        N  0.35591711  0.26963257  0.92866780    -0.78900
C242        C  0.38524357  0.27885415  0.89772560     0.81800
N243        N  0.38200142  0.27833687  0.84366700    -0.80700
C244        C  0.21176513  0.09706483  0.82830974     0.79300
N245        N  0.21327828  0.12697164  0.85084895    -0.79000
C246        C  0.22350258  0.13412428  0.90203954     0.81700
N247        N  0.23163780  0.11147115  0.92995462    -0.78900
C248        C  0.22890276  0.08112380  0.90882696     0.81800
N249        N  0.21855769  0.07347745  0.85784222    -0.79800
C250        C  0.19152256  0.10522457  0.68306893     0.79300
N251        N  0.18790222  0.07351906  0.66435480    -0.79000
C252        C  0.18599493  0.06837641  0.61174449     0.81700
N253        N  0.18861536  0.09537119  0.57722565    -0.78900
C254        C  0.19266420  0.12738618  0.59547803     0.81800
N255        N  0.19397741  0.13225840  0.64857693    -0.80700
O256        O  0.22728849  0.29578040  0.93930823    -0.81100
O257        O  0.22959484  0.16426555  0.98038531    -0.81100
O258        O  0.27315297  0.26418827  0.92726422    -0.81100
O259        O  0.16736954  0.21535182  0.90637322    -0.81000
O260        O  0.28795060  0.23199220  0.98295523    -0.81200
O261        O  0.15835103  0.24724403  0.96407548    -0.81100
O262        O  0.20240336  0.17564940  0.91386959    -0.81100
O263        O  0.28426529  0.33059741  0.96233000    -0.81100
C264        C  0.25776788  0.32650342  0.93506963     1.08600
C265        C  0.21962193  0.16087285  0.93226352     1.08500
C266        C  0.29289537  0.25101617  0.93953473     1.08700
C267        C  0.15155546  0.23221995  0.91950921     1.08500
O268        O  0.15690974  0.22842882  0.54133363    -0.81100
O269        O  0.28469715  0.22256291  0.52277262    -0.81100
O270        O  0.23256432  0.28367333  0.57984709    -0.81100
O271        O  0.18547398  0.17741455  0.56449040    -0.81000
O272        O  0.21891915  0.16267405  0.51589087    -0.81100
O273        O  0.20886149  0.30150888  0.51907810    -0.81100
O274        O  0.12373752  0.16937917  0.51913587    -0.81000
O275        O  0.27149162  0.24996930  0.58454346    -0.81100
Co276      Co  0.19354236  0.25508692  0.47751979     1.51500
Co277      Co  0.24754520  0.20825513  0.46662163     1.51700
Co278      Co  0.26725626  0.28264803  0.53041658     1.51600
Co279      Co  0.17364015  0.19703785  0.49987708     1.51500
O280        O  0.22646075  0.23681369  0.49605307    -1.43000
C281        C  0.12759853  0.19611337  0.54615652     1.08600
C282        C  0.28703300  0.23315242  0.57026268     1.08700
C283        C  0.22232248  0.30554359  0.56473021     1.08600
C284        C  0.19981733  0.15787756  0.55750369     1.08600
O285        O  0.03629883  0.29158486  0.53392996    -0.81100
O286        O  0.39613693  0.17318880  0.51487873    -0.81100
O287        O  0.42972905  0.25889553  0.57433528    -0.81100
O288        O  0.49587506  0.17817500  0.52948618    -0.81000
O289        O  0.38963799  0.23278927  0.51166507    -0.81200
O290        O  0.01565816  0.22089614  0.55966270    -0.81100
O291        O  0.44263827  0.18960229  0.56803963    -0.81100
O292        O  0.50177869  0.29558270  0.57878933    -0.81100
C293        C  0.02744124  0.29683525  0.57900147     1.08600
C294        C  0.40928030  0.16890201  0.55838191     1.08500
C295        C  0.39760504  0.24084794  0.55977523     1.08700
C296        C  0.01376465  0.18915211  0.56663560     1.08500
O297        O  0.06153930  0.26935777  0.96015776    -0.81100
O298        O  0.42302782  0.25496447  0.90906257    -0.81100
O299        O  0.50190292  0.32987878  0.97184758    -0.81100
O300        O  0.43817456  0.16087890  0.96594262    -0.81000
O301        O  0.42935846  0.19478929  0.90959531    -0.81100
O302        O  0.01165120  0.28722939  0.92969482    -0.81100
O303        O  0.50590402  0.22017668  0.93083313    -0.81000
O304        O  0.42649644  0.29309789  0.96893839    -0.81100
Co305      Co  0.00666360  0.24648109  0.49251860     1.51500
Co306      Co  0.41433541  0.21741150  0.46122478     1.51700
Co307      Co  0.46751714  0.29309060  0.52416125     1.51600
Co308      Co  0.47556921  0.20692759  0.50542170     1.51500
O309        O  0.46344899  0.24695638  0.49327026    -1.43000
C310        C  0.04598874  0.23879789  0.93722874     1.08600
C311        C  0.41566802  0.27857051  0.92382158     1.08700
C312        C  0.01921275  0.31956891  0.94144623     1.08600
C313        C  0.42376625  0.16332238  0.92383827     1.08600
O314        O  0.22946612  0.44359656  0.58438130    -0.81100
O315        O  0.21209342  0.03110428  0.59854661    -0.81100
O316        O  0.31634119  0.01979930  0.55527878    -0.81100
O317        O  0.15416230  0.43945519  0.57266001    -0.81000
O318        O  0.27777906  0.03207336  0.59301754    -0.81200
O319        O  0.16170460  0.39161017  0.55764196    -0.81100
O320        O  0.16268123  0.01685559  0.55918478    -0.81100
O321        O  0.27156875  0.44851460  0.53020160    -0.81100
C322        C  0.25287164  0.43525870  0.57318847     1.08600
C323        C  0.18597076  0.03645184  0.59135510     1.08500
C324        C  0.31044094  0.03991300  0.58573382     1.08700
C325        C  0.14537134  0.40498167  0.58149475     1.08500
O326        O  0.16718657  0.42976626  0.96328103    -0.81100
O327        O  0.30019747  0.06532255  0.00005935    -0.81100
O328        O  0.24837975  0.46043976  0.92648908    -0.81100
O329        O  0.21471159  0.02035020  0.93572089    -0.81000
O330        O  0.23991683  0.06475045  0.99267134    -0.81100
O331        O  0.22005108  0.41546435  0.98580332    -0.81100
O332        O  0.13332127  0.45292871  0.98469297    -0.81000
O333        O  0.29221885  0.01822925  0.95302605    -0.81100
Co334      Co  0.19742637  0.43618412  0.52443598     1.51500
Co335      Co  0.25002614  0.04607528  0.54157741     1.51700
Co336      Co  0.27606421  0.48895560  0.47736356     1.51600
Co337      Co  0.17838101  0.47831761  0.50826761     1.51500
O338        O  0.23040044  0.48880605  0.50145650    -1.43000
C339        C  0.13753601  0.43022106  0.95849488     1.08600
C340        C  0.30669464  0.05270680  0.95870526     1.08700
C341        C  0.23525743  0.42690408  0.94049575     1.08600
C342        C  0.22978307  0.05425191  0.94599273     1.08600
C343        C  0.20186072  0.08906189  0.77278260    -0.17300
C344        C  0.19715450  0.11213303  0.73987331    -0.32500
H345        H  0.20001149  0.06401917  0.75812101     0.11700
H346        H  0.19980919  0.13762390  0.75407965     0.12200
C347        C  0.36362897  0.26135454  0.73130128    -0.17300
C348        C  0.34375964  0.26818831  0.76401850    -0.32500
H349        H  0.38765017  0.26196750  0.74627722     0.11700
H350        H  0.31925882  0.26671538  0.74950392     0.12200
C351        C  0.35256226  0.08879378  0.77515866    -0.17300
C352        C  0.37598906  0.11362471  0.73861587    -0.32500
H353        H  0.32833115  0.06379057  0.76273803     0.11700
H354        H  0.39960614  0.13912995  0.75120690     0.12200
C355        C  0.09095204  0.20509651  0.72494335    -0.17300
C356        C  0.06957481  0.20641021  0.76239658    -0.32500
H357        H  0.11715515  0.20960005  0.73637564     0.11700
H358        H  0.04349333  0.20223997  0.75097480     0.12200
C359        C  0.09592689  0.38203096  0.78082399    -0.17300
C360        C  0.07001020  0.35932106  0.74765439    -0.32500
H361        H  0.12264250  0.40182686  0.76550144     0.11700
H362        H  0.04341170  0.33954336  0.76340250     0.12200
C363        C  0.25277289  0.36506861  0.73585090    -0.17300
C364        C  0.25672469  0.39189012  0.76792266    -0.32500
H365        H  0.25009975  0.33980431  0.75245663     0.11700
H366        H  0.25766877  0.41635224  0.75138553     0.12200
C367        C  0.26848934  0.87059095  0.18252072     0.79300
N368        N  0.26180054  0.89584759  0.15789954    -0.79000
C369        C  0.25299316  0.89288095  0.10603715     0.81700
N370        N  0.25197631  0.86534943  0.07820253    -0.78900
C371        C  0.25946433  0.84057246  0.10191843     0.81800
N372        N  0.26698951  0.84257735  0.15453050    -0.80700
C373        C  0.27119786  0.89556022  0.32701482     0.79300
N374        N  0.26002260  0.86225533  0.35309210    -0.79000
C375        C  0.25093389  0.85760876  0.40537144     0.81700
N376        N  0.25328745  0.88640318  0.43178910    -0.78900
C377        C  0.26487434  0.91997223  0.40644187     0.81800
N378        N  0.27278621  0.92418243  0.35350692    -0.80700
C379        C  0.08256557  0.89325651  0.33214369     0.79300
N380        N  0.05190233  0.86447418  0.35576851    -0.79000
C381        C  0.04725508  0.86276896  0.40940533     0.81700
N382        N  0.07407740  0.88867719  0.43898420    -0.78900
C383        C  0.10504658  0.91619659  0.41531685     0.81800
N384        N  0.10914150  0.91844164  0.36215627    -0.80700
C385        C  0.07732352  0.87078406  0.18663166     0.79300
N386        N  0.10792314  0.90005356  0.16354307    -0.79000
C387        C  0.11513865  0.89977212  0.11112487     0.81700
N388        N  0.09223593  0.86984984  0.08256479    -0.78900
C389        C  0.06208146  0.84057595  0.10586284     0.81800
N390        N  0.05463656  0.84152209  0.15761777    -0.80700
C391        C  0.08065536  0.69212376  0.16486115     0.79300
N392        N  0.10194669  0.68459493  0.13503746    -0.79000
C393        C  0.09682657  0.67948255  0.08248083     0.81700
N394        N  0.06992882  0.68236203  0.05890315    -0.78900
C395        C  0.04827929  0.69042193  0.08787763     0.81800
N396        N  0.05408204  0.69598840  0.14111964    -0.80700
C397        C  0.08577284  0.71714203  0.31200358     0.79300
N398        N  0.11118638  0.71029178  0.33323613    -0.79000
C399        C  0.11738637  0.71342270  0.38647266     0.81700
N400        N  0.09890634  0.72419384  0.41762008    -0.78900
C401        C  0.07526766  0.73299598  0.39620488     0.81800
N402        N  0.06826003  0.72862747  0.34371668    -0.80700
C403        C  0.37048205  0.61685555  0.33145647     0.79300
N404        N  0.39953774  0.63902811  0.36009884    -0.79000
C405        C  0.39807578  0.63591652  0.41347224     0.81700
N406        N  0.36623998  0.61193390  0.43911750    -0.78900
C407        C  0.33630026  0.58959776  0.41094192     0.81800
N408        N  0.33864041  0.59145918  0.35668741    -0.80700
C409        C  0.36210131  0.59886782  0.18352071     0.79300
N410        N  0.38712773  0.63173971  0.15800843    -0.79000
C411        C  0.38973625  0.63383131  0.10384564     0.81700
N412        N  0.36757428  0.60322633  0.07618566    -0.78900
C413        C  0.34345208  0.57060949  0.10169889     0.81800
N414        N  0.34039188  0.56897519  0.15508252    -0.80700
C415        C  0.34195457  0.75539117  0.17415927     0.79300
N416        N  0.37038351  0.75407624  0.15199360    -0.79000
C417        C  0.36857294  0.74363405  0.10068925     0.81700
N418        N  0.33889793  0.73508828  0.07254475    -0.78900
C419        C  0.31122945  0.73734421  0.09288100     0.81800
N420        N  0.31279011  0.74783270  0.14377434    -0.80700
C421        C  0.36659424  0.77779875  0.32310817     0.79300
N422        N  0.33713678  0.77610062  0.34630327    -0.79000
C423        C  0.33588402  0.78011089  0.39980837     0.81700
N424        N  0.36402612  0.78466990  0.43018503    -0.78900
C425        C  0.39320146  0.78549981  0.40772412     0.81800
N426        N  0.39395040  0.78166507  0.35438630    -0.80700
C427        C  0.18728797  0.58132011  0.32155866     0.79300
N428        N  0.18296253  0.60861417  0.34161525    -0.79000
C429        C  0.18425813  0.61311790  0.39475207     0.81700
N430        N  0.19203626  0.59162373  0.42743040    -0.78900
C431        C  0.19708223  0.56479988  0.40764401     0.81800
N432        N  0.19405598  0.55928421  0.35471291    -0.79800
C433        C  0.18692326  0.59629477  0.17074179     0.79300
N434        N  0.18625158  0.56580461  0.15212914    -0.79000
C435        C  0.18799805  0.56226464  0.09919104     0.81700
N436        N  0.19233257  0.59011082  0.06499682    -0.78900
C437        C  0.19379611  0.62096996  0.08310611     0.81800
N438        N  0.19063615  0.62387308  0.13609149    -0.80700
O439        O  0.20128811  0.80438818  0.44614554    -0.81100
O440        O  0.20883338  0.67729856  0.40212358    -0.81100
O441        O  0.30033120  0.78279212  0.47172804    -0.81100
O442        O  0.13681733  0.68665967  0.45249175    -0.81000
O443        O  0.27188348  0.74524377  0.40847862    -0.81200
O444        O  0.17851717  0.73540319  0.40485929    -0.81100
O445        O  0.16585115  0.64041079  0.45906373    -0.81100
O446        O  0.25311833  0.80522919  0.44199221    -0.81100
C447        C  0.23427403  0.82077726  0.43199759     1.08600
C448        C  0.18397054  0.64508319  0.41661257     1.08500
C449        C  0.30120636  0.77070179  0.42644551     1.08700
C450        C  0.14595187  0.70929911  0.41198311     1.08500
O451        O  0.15899179  0.70874522  0.06069223    -0.81100
O452        O  0.28304660  0.71953862  0.01097823    -0.81100
O453        O  0.28222902  0.81880908  0.03586528    -0.81100
O454        O  0.18661317  0.67082824  0.05066415    -0.81000
O455        O  0.21947702  0.65590330  0.00338761    -0.81100
O456        O  0.22840715  0.77854050  0.07195728    -0.81100
O457        O  0.12168309  0.66069467  0.01319804    -0.81000
O458        O  0.26390658  0.74699891  0.06232374    -0.81100
Co459      Co  0.19214993  0.75384914  0.01226113     1.51500
Co460      Co  0.24652085  0.70089985  0.95380840     1.51700
Co461      Co  0.25863349  0.77385971  0.99820231     1.51600
Co462      Co  0.17055710  0.68652589  0.98496174     1.51500
O463        O  0.21950662  0.72834391  0.97061919    -1.43000
C464        C  0.12659151  0.68248592  0.05054903     1.08600
C465        C  0.28321075  0.73287413  0.05534267     1.08700
C466        C  0.25734737  0.81121648  0.06989652     1.08600
C467        C  0.20093471  0.65141396  0.04489265     1.08600
O468        O  0.04495052  0.80239834  0.03119914    -0.81100
O469        O  0.40187287  0.67418253  0.02886652    -0.81100
O470        O  0.43093518  0.76304924  0.08745369    -0.81100
O471        O  0.50252955  0.68053415  0.05192941    -0.81000
O472        O  0.39286323  0.73286997  0.02406602    -0.81200
O473        O  0.02335880  0.72846638  0.05838534    -0.81100
O474        O  0.44660636  0.68980322  0.08497050    -0.81100
O475        O  0.50500009  0.79702120  0.08796543    -0.81100
C476        C  0.03585514  0.80949797  0.07466151     1.08600
C477        C  0.41368395  0.66890374  0.07298587     1.08500
C478        C  0.39901677  0.74543906  0.07074915     1.08700
C479        C  0.02146826  0.69646319  0.05915822     1.08500
O480        O  0.06130595  0.77573713  0.43586878    -0.81100
O481        O  0.42635024  0.75640038  0.42786620    -0.81100
O482        O  0.50227777  0.82723453  0.48500292    -0.81100
O483        O  0.43877855  0.65933223  0.48476155    -0.81000
O484        O  0.43608685  0.69797682  0.42945264    -0.81100
O485        O  0.00974077  0.79768098  0.42245266    -0.81100
O486        O  0.50543824  0.71576622  0.45438145    -0.81000
O487        O  0.42699829  0.79304683  0.48765066    -0.81100
Co488      Co  0.01394804  0.75522722  0.99298865     1.51500
Co489      Co  0.42026080  0.71810641  0.97553046     1.51700
Co490      Co  0.47037673  0.79406179  0.03463006     1.51600
Co491      Co  0.48112808  0.70729842  0.02343840     1.51500
O492        O  0.46868931  0.74759995  0.00804494    -1.43000
C493        C  0.05355768  0.74216144  0.43033639     1.08600
C494        C  0.41830771  0.77985349  0.44165923     1.08700
C495        C  0.01778443  0.82960174  0.43733225     1.08600
C496        C  0.42759044  0.66524463  0.44153627     1.08600
O497        O  0.21938700  0.90806049  0.04758198    -0.81100
O498        O  0.21704713  0.52814091  0.09152457    -0.81100
O499        O  0.31762350  0.53256303  0.02787944    -0.81100
O500        O  0.14516246  0.94983187  0.04724923    -0.81000
O501        O  0.28246033  0.53553346  0.08785927    -0.81200
O502        O  0.17706616  0.93079346  0.08742833    -0.81100
O503        O  0.17391423  0.51554876  0.03818175    -0.81100
O504        O  0.26785684  0.95408744  0.08259438    -0.81100
C505        C  0.24567491  0.91964060  0.07907799     1.08600
C506        C  0.19102894  0.53182926  0.07851286     1.08500
C507        C  0.31316599  0.54281170  0.07263515     1.08700
C508        C  0.14790465  0.93021544  0.08418181     1.08500
O509        O  0.16767661  0.94791809  0.43121600    -0.81100
O510        O  0.29488252  0.56890435  0.48501928    -0.81100
O511        O  0.27738013  0.95991933  0.47833520    -0.81100
O512        O  0.18874316  0.50691174  0.44004425    -0.81000
O513        O  0.22613309  0.55738649  0.48310291    -0.81100
O514        O  0.23550782  0.95318460  0.42279020    -0.81100
O515        O  0.13136084  0.94594131  0.49318925    -0.81000
O516        O  0.28567840  0.52891121  0.42408704    -0.81100
Co517      Co  0.19809120  0.93708875  0.01598591     1.51500
Co518      Co  0.25589969  0.54791066  0.03673403     1.51700
Co519      Co  0.27959110  0.98646377  0.01761921     1.51600
Co520      Co  0.18334276  0.98555592  0.99340018     1.51500
O521        O  0.23250438  0.98960382  0.02592564    -1.43000
C522        C  0.13600393  0.93840147  0.44727094     1.08600
C523        C  0.30283920  0.56166487  0.43996493     1.08700
C524        C  0.26119110  0.94798126  0.43468904     1.08600
C525        C  0.20539602  0.54198353  0.44400645     1.08600
C526        C  0.18630526  0.57635353  0.26404250    -0.17300
C527        C  0.18551058  0.60045280  0.22825725    -0.32500
H528        H  0.18771027  0.55245805  0.25062391     0.11700
H529        H  0.18506418  0.62490847  0.24153967     0.12200
C530        C  0.34158081  0.76463743  0.23097089    -0.17300
C531        C  0.36830318  0.77171934  0.26518900    -0.32500
H532        H  0.31783043  0.76439434  0.24535907     0.11700
H533        H  0.39200803  0.77186425  0.25082222     0.12200
C534        C  0.37486605  0.62211154  0.27357932    -0.17300
C535        C  0.35543630  0.59498185  0.24117851    -0.32500
H536        H  0.39746200  0.64871111  0.25723539     0.11700
H537        H  0.33386376  0.56785266  0.25793224     0.12200
C538        C  0.08902679  0.69727187  0.22203325    -0.17300
C539        C  0.07597741  0.71199800  0.25513177    -0.32500
H540        H  0.10794553  0.68951579  0.23695746     0.11700
H541        H  0.05726455  0.72010711  0.24052063     0.12200
C542        C  0.08946359  0.89622598  0.27496990    -0.17300
C543        C  0.06831143  0.86946642  0.24291533    -0.32500
H544        H  0.11437747  0.92090523  0.25903217     0.11700
H545        H  0.04367101  0.84452760  0.25900570     0.12200
C546        C  0.27346959  0.87106250  0.24047229    -0.17300
C547        C  0.27616680  0.89916906  0.26878164    -0.32500
H548        H  0.27176922  0.84706902  0.25999589     0.11700
H549        H  0.27871932  0.92351534  0.24908315     0.12200
C550        C  0.25081356  0.86757212  0.67494359     0.79300
N551        N  0.24604072  0.89474763  0.65153897    -0.79000
C552        C  0.24285635  0.89636819  0.59797183     0.81700
N553        N  0.24463413  0.87088561  0.56822506    -0.78900
C554        C  0.25037720  0.84453499  0.59086560     0.81800
N555        N  0.25307298  0.84261647  0.64439849    -0.80700
C556        C  0.24549892  0.88060323  0.82435112     0.79300
N557        N  0.24526298  0.85094726  0.84995182    -0.79000
C558        C  0.24316648  0.84778134  0.90408107     0.81700
N559        N  0.24126059  0.87382613  0.93149043    -0.78900
C560        C  0.24133177  0.90294857  0.90661294     0.81800
N561        N  0.24344842  0.90649154  0.85294022    -0.80700
C562        C  0.09090726  0.87673749  0.83851956     0.79300
N563        N  0.05739510  0.85182567  0.85998192    -0.79000
C564        C  0.05310395  0.84563716  0.91395226     0.81700
N565        N  0.08250744  0.86236588  0.94517889    -0.78900
C566        C  0.11566629  0.88569808  0.92341762     0.81800
N567        N  0.11948253  0.89352823  0.87060606    -0.80700
C568        C  0.08423035  0.86846276  0.68760396     0.79300
N569        N  0.11700440  0.89552435  0.66589785    -0.79000
C570        C  0.12469512  0.89346806  0.61391673     0.81700
N571        N  0.10005421  0.86577182  0.58488659    -0.78900
C572        C  0.06771521  0.84044436  0.60530925     0.81800
N573        N  0.05956034  0.84170868  0.65664435    -0.80700
C574        C  0.08672860  0.70845750  0.66823196     0.79300
N575        N  0.11404177  0.71246674  0.63644339    -0.79000
C576        C  0.11550957  0.72162154  0.58387481     0.81700
N577        N  0.08950134  0.72665430  0.56299473    -0.78900
C578        C  0.06194196  0.72244879  0.59389636     0.81800
N579        N  0.05996787  0.71279027  0.64661258    -0.80700
C580        C  0.07409646  0.70816389  0.81952161     0.79300
N581        N  0.10362084  0.70861388  0.84128883    -0.79000
C582        C  0.11174404  0.71785384  0.89301580     0.81700
N583        N  0.09099187  0.72671613  0.92136528    -0.78900
C584        C  0.06165893  0.72537414  0.90098856     0.81800
N585        N  0.05282311  0.71584671  0.85004928    -0.80700
C586        C  0.37526737  0.61443010  0.83174350     0.79300
N587        N  0.40497928  0.63723694  0.85927735    -0.79000
C588        C  0.40350339  0.63727805  0.91283580     0.81700
N589        N  0.37122867  0.61598046  0.93907053    -0.78900
C590        C  0.34084771  0.59344823  0.91184051     0.81800
N591        N  0.34312537  0.59213302  0.85806821    -0.80700
C592        C  0.35814539  0.59315916  0.68444434     0.79300
N593        N  0.38260387  0.62583358  0.65845079    -0.79000
C594        C  0.38404187  0.62822895  0.60448530     0.81700
N595        N  0.36154078  0.59766507  0.57679964    -0.78900
C596        C  0.33768466  0.56484160  0.60241749     0.81800
N597        N  0.33540200  0.56317620  0.65624554    -0.80700
C598        C  0.34044864  0.75563365  0.67727769     0.79300
N599        N  0.36710687  0.75196327  0.65469960    -0.79000
C600        C  0.36325500  0.73941050  0.60489197     0.81700
N601        N  0.33338009  0.73121732  0.57785872    -0.78900
C602        C  0.30734682  0.73598256  0.59848618     0.81800
N603        N  0.31079118  0.74851331  0.64851648    -0.80700
C604        C  0.37278445  0.78124869  0.82019053     0.79300
N605        N  0.34343076  0.77850565  0.84433524    -0.79000
C606        C  0.34223708  0.78137290  0.89752443     0.81700
N607        N  0.37066860  0.78628451  0.92737992    -0.78900
C608        C  0.40025239  0.78855289  0.90385159     0.81800
N609        N  0.40074365  0.78530989  0.85022936    -0.80700
C610        C  0.18167394  0.57462364  0.82168839     0.79300
N611        N  0.17882297  0.60336544  0.83922638    -0.79000
C612        C  0.18488258  0.61238158  0.89066679     0.81700
N613        N  0.19571230  0.59386107  0.92399071    -0.78900
C614        C  0.19925301  0.56557233  0.90646135     0.81800
N615        N  0.19163083  0.55557337  0.85541651    -0.79800
C616        C  0.18280273  0.58841993  0.67273309     0.79300
N617        N  0.18159773  0.55797946  0.65385084    -0.79000
C618        C  0.18829048  0.55745587  0.60179112     0.81700
N619        N  0.19670016  0.58704881  0.56847617    -0.78900
C620        C  0.19879834  0.61771340  0.58751498     0.81800
N621        N  0.19117100  0.61813586  0.63954970    -0.80700
O622        O  0.21410584  0.80201631  0.97129895    -0.81100
O623        O  0.21235688  0.67708222  0.89582869    -0.81100
O624        O  0.30542973  0.78294439  0.96662898    -0.81100
O625        O  0.15299411  0.69717819  0.91699878    -0.81000
O626        O  0.27878141  0.74318079  0.90410939    -0.81200
O627        O  0.15257328  0.73979079  0.96156822    -0.81100
O628        O  0.16545966  0.64243030  0.94782628    -0.81100
O629        O  0.25829595  0.80201994  0.93240712    -0.81100
C630        C  0.23790608  0.81494669  0.93527570     1.08600
C631        C  0.18559903  0.64546044  0.90894741     1.08500
C632        C  0.30722657  0.76979592  0.92300023     1.08700
C633        C  0.14183447  0.71917347  0.92252547     1.08500
O634        O  0.15286168  0.74289868  0.50543611    -0.81100
O635        O  0.28065572  0.72124858  0.51553123    -0.81100
O636        O  0.27944353  0.81939838  0.54137210    -0.81100
O637        O  0.19078645  0.66671126  0.56362577    -0.81000
O638        O  0.22165690  0.65447652  0.50691757    -0.81100
O639        O  0.21951875  0.78972374  0.54144793    -0.81100
O640        O  0.15959183  0.70707262  0.56252430    -0.81000
O641        O  0.26104297  0.74754062  0.57020831    -0.81100
Co642      Co  0.20157398  0.76133819  0.47037819     1.51500
Co643      Co  0.24420228  0.70123211  0.45801512     1.51700
Co644      Co  0.25367097  0.77299094  0.50784592     1.51600
Co645      Co  0.16594649  0.67795279  0.50850585     1.51500
O646        O  0.21459124  0.72244726  0.48529722    -1.43000
C647        C  0.14422711  0.72457539  0.54941090     1.08600
C648        C  0.28017015  0.73331364  0.56115054     1.08700
C649        C  0.25017718  0.81658360  0.55713412     1.08600
C650        C  0.20524979  0.64853163  0.55152379     1.08600
O651        O  0.04934873  0.81481002  0.52139587    -0.81100
O652        O  0.39542367  0.67013047  0.53177739    -0.81100
O653        O  0.42483239  0.75995116  0.59119526    -0.81100
O654        O  0.49672008  0.67703828  0.54784403    -0.81000
O655        O  0.38629461  0.72853452  0.52839151    -0.81200
O656        O  0.04299424  0.75451160  0.53696335    -0.81100
O657        O  0.44064436  0.68437577  0.58684104    -0.81100
O658        O  0.49881604  0.79669685  0.59262111    -0.81100
C659        C  0.04057604  0.81623427  0.56933777     1.08600
C660        C  0.40763997  0.66375888  0.57476132     1.08500
C661        C  0.39293246  0.74125619  0.57483135     1.08700
C662        C  0.03427775  0.72621363  0.56702572     1.08500
O663        O  0.05752447  0.76189598  0.96511110    -0.81100
O664        O  0.43329635  0.75935847  0.92316509    -0.81100
O665        O  0.51004057  0.83069573  0.98256993    -0.81100
O666        O  0.44528220  0.66232566  0.98338594    -0.81000
O667        O  0.44207212  0.69993172  0.92620549    -0.81100
O668        O  0.01007718  0.78294912  0.93075490    -0.81100
O669        O  0.51464798  0.71670913  0.95559057    -0.81000
O670        O  0.43489141  0.79672194  0.98284176    -0.81100
Co671      Co  0.02086797  0.77045452  0.47707170     1.51500
Co672      Co  0.41360990  0.71474709  0.47951831     1.51700
Co673      Co  0.46335264  0.79134470  0.53860478     1.51600
Co674      Co  0.47432054  0.70402473  0.52466334     1.51500
O675        O  0.46103328  0.74389154  0.51423089    -1.43000
C676        C  0.04087114  0.73438615  0.93609979     1.08600
C677        C  0.42582443  0.78324789  0.93695984     1.08700
C678        C  0.01927283  0.81604263  0.93962756     1.08600
C679        C  0.43376225  0.66739533  0.93961483     1.08600
O680        O  0.22119269  0.91524936  0.52575433    -0.81100
O681        O  0.21140323  0.51866191  0.58919319    -0.81100
O682        O  0.31339802  0.52627671  0.52751384    -0.81100
O683        O  0.16999204  0.95627787  0.59251944    -0.81000
O684        O  0.27657272  0.52594239  0.58661813    -0.81200
O685        O  0.15995132  0.91329744  0.53691990    -0.81100
O686        O  0.16811798  0.51249756  0.54115473    -0.81100
O687        O  0.24941412  0.95709791  0.58487008    -0.81100
C688        C  0.23632705  0.92404286  0.57021885     1.08600
C689        C  0.18699718  0.52592732  0.58038434     1.08500
C690        C  0.30807415  0.53561104  0.57249918     1.08700
C691        C  0.15526339  0.92246124  0.58252653     1.08500
O692        O  0.15480880  0.89289363  0.99493832    -0.81100
O693        O  0.29968523  0.57621014  0.98595546    -0.81100
O694        O  0.26748139  0.94414191  0.97364884    -0.81100
O695        O  0.19671037  0.51053163  0.93827366    -0.81000
O696        O  0.22953395  0.56228694  0.98295435    -0.81100
O697        O  0.21910863  0.93922217  0.94259572    -0.81100
O698        O  0.16593830  0.94254743  0.94465313    -0.81000
O699        O  0.28796845  0.53508177  0.92604858    -0.81100
Co700      Co  0.19824649  0.93723269  0.48002048     1.51500
Co701      Co  0.25089431  0.53952705  0.53494669     1.51700
Co702      Co  0.26937129  0.99427880  0.52338327     1.51600
Co703      Co  0.17537172  0.98437532  0.52511403     1.51500
O704        O  0.22356591  0.99146048  0.50670635    -1.43000
C705        C  0.14628648  0.90744764  0.95658252     1.08600
C706        C  0.30680365  0.56778235  0.94125260     1.08700
C707        C  0.24357185  0.93168820  0.93981792     1.08600
C708        C  0.21008853  0.54533208  0.94327694     1.08600
C709        C  0.17808702  0.56663648  0.76528108    -0.17300
C710        C  0.17781458  0.59093785  0.72926736    -0.32500
H711        H  0.17964130  0.54303413  0.75310962     0.11700
H712        H  0.17765821  0.61526844  0.74152632     0.12200
C713        C  0.34349903  0.76722026  0.73264278    -0.17300
C714        C  0.37218492  0.77474859  0.76280617    -0.32500
H715        H  0.32071610  0.76792799  0.74966099     0.11700
H716        H  0.39502282  0.77414949  0.74577518     0.12200
C717        C  0.37865694  0.61629150  0.77346669    -0.17300
C718        C  0.35386821  0.59044615  0.74277165    -0.32500
H719        H  0.40321591  0.63952385  0.75530323     0.11700
H720        H  0.33006661  0.56625022  0.76087605     0.12200
C721        C  0.08945855  0.70360945  0.72635230    -0.17300
C722        C  0.06630987  0.70343393  0.76201303    -0.32500
H723        H  0.11335817  0.70380506  0.74020206     0.11700
H724        H  0.04268188  0.70384698  0.74820112     0.12200
C725        C  0.09842323  0.88496093  0.78094236    -0.17300
C726        C  0.07440119  0.86600378  0.74430320    -0.32500
H727        H  0.12623234  0.90549212  0.76830236     0.11700
H728        H  0.04688041  0.84466324  0.75698532     0.12200
C729        C  0.25136781  0.86309055  0.73345694    -0.17300
C730        C  0.24716250  0.88547595  0.76582712    -0.32500
H731        H  0.25418807  0.84066059  0.74981122     0.11700
H732        H  0.24455554  0.90799283  0.74923981     0.12200
C733        C  0.75884162  0.37206974  0.16605718     0.79300
N734        N  0.75952333  0.40161566  0.14040204    -0.79000
C735        C  0.76143344  0.40505491  0.08655244     0.81700
N736        N  0.76190557  0.37804289  0.05827313    -0.78900
C737        C  0.76016386  0.34770555  0.08362460     0.81800
N738        N  0.75825270  0.34476822  0.13755821    -0.80700
C739        C  0.75516949  0.38909646  0.31416436     0.79300
N740        N  0.75939381  0.36202505  0.33831705    -0.79000
C741        C  0.75832421  0.35793317  0.39195310     0.81700
N742        N  0.75086686  0.37985955  0.42164920    -0.78900
C743        C  0.74591454  0.40668114  0.39795003     0.81800
N744        N  0.74877325  0.41165733  0.34409346    -0.80700
C745        C  0.59103005  0.38923135  0.33091575     0.79300
N746        N  0.55894099  0.36234285  0.35327162    -0.79000
C747        C  0.55227331  0.36139817  0.40609056     0.81700
N748        N  0.57849254  0.38728119  0.43703536    -0.78900
C749        C  0.61120824  0.41363624  0.41557110     0.81800
N750        N  0.61745948  0.41421938  0.36245741    -0.80700
C751        C  0.57846675  0.36459043  0.18322612     0.79300
N752        N  0.61169183  0.38705791  0.15972140    -0.79000
C753        C  0.61724350  0.38165890  0.10858850     0.81700
N754        N  0.59007535  0.35546680  0.08106827    -0.78900
C755        C  0.55685136  0.33442109  0.10261585     0.81800
N756        N  0.55071217  0.33873963  0.15406822    -0.80700
C757        C  0.58022410  0.20492060  0.15637576     0.79300
N758        N  0.60333563  0.19967878  0.12690238    -0.79000
C759        C  0.59903672  0.19474109  0.07404724     0.81700
N760        N  0.57155732  0.19600557  0.04986444    -0.78900
C761        C  0.54843982  0.20220779  0.07815856     0.81800
N762        N  0.55289800  0.20702940  0.13177507    -0.80700
C763        C  0.57518915  0.21865798  0.30705047     0.79300
N764        N  0.60722610  0.22392598  0.32691725    -0.79000
C765        C  0.61531318  0.23329050  0.37868782     0.81700
N766        N  0.59244003  0.23786551  0.40873202    -0.78900
C767        C  0.56114958  0.23238470  0.39012533     0.81800
N768        N  0.55214916  0.22274841  0.33920870    -0.80700
C769        C  0.85515646  0.08017556  0.33716343     0.79300
N770        N  0.88580188  0.10786703  0.35918517    -0.79000
C771        C  0.88563535  0.11514312  0.41144641     0.81700
N772        N  0.85411781  0.09603807  0.44027748    -0.78900
C773        C  0.82339624  0.06915434  0.41784085     0.81800
N774        N  0.82433555  0.06100788  0.36676558    -0.80700
C775        C  0.87336633  0.09480921  0.18814776     0.79300
N776        N  0.89809252  0.12551314  0.15873235    -0.79000
C777        C  0.89141207  0.13014009  0.10750031     0.81700
N778        N  0.86074259  0.10393901  0.08600941    -0.78900
C779        C  0.83587551  0.07295462  0.11366566     0.81800
N780        N  0.84174807  0.06827792  0.16577864    -0.80700
C781        C  0.84548648  0.25689456  0.17014350     0.79300
N782        N  0.87142680  0.25079646  0.14991389    -0.79000
C783        C  0.86877151  0.23914007  0.09933776     0.81700
N784        N  0.84100070  0.23432555  0.06957316    -0.78900
C785        C  0.81612850  0.24160832  0.08767929     0.81800
N786        N  0.81805645  0.25296608  0.13823515    -0.80700
C787        C  0.87113571  0.27656362  0.31906476     0.79300
N788        N  0.84470345  0.28047189  0.34198999    -0.79000
C789        C  0.84459463  0.28529421  0.39537518     0.81700
N790        N  0.87047285  0.28489507  0.42589466    -0.78900
C791        C  0.89634795  0.27991538  0.40384311     0.81800
N792        N  0.89623232  0.27540684  0.35056368    -0.80700
C793        C  0.70131403  0.10531512  0.31608451     0.79300
N794        N  0.69347363  0.13045554  0.33501262    -0.79000
C795        C  0.69189887  0.13398585  0.38810818     0.81700
N796        N  0.70008122  0.11352155  0.42242870    -0.78900
C797        C  0.70886687  0.08903860  0.40366399     0.81800
N798        N  0.70864066  0.08451652  0.35056442    -0.79800
C799        C  0.69171688  0.11364968  0.16566420     0.79300
N800        N  0.69867900  0.08857962  0.14382498    -0.79000
C801        C  0.69589058  0.08422714  0.09043597     0.81700
N802        N  0.68631052  0.10477756  0.05940241    -0.78900
C803        C  0.68018304  0.13024238  0.08088071     0.81800
N804        N  0.68353115  0.13501798  0.13383856    -0.80700
O805        O  0.73328849  0.29346130  0.40330299    -0.81100
O806        O  0.71396733  0.19732319  0.39624232    -0.81100
O807        O  0.81269842  0.29194702  0.46821634    -0.81100
O808        O  0.65916462  0.21903365  0.41408606    -0.81000
O809        O  0.78166596  0.25615765  0.40361551    -0.81200
O810        O  0.66437098  0.27326997  0.42890850    -0.81100
O811        O  0.66931374  0.16057102  0.44787036    -0.81100
O812        O  0.77391106  0.32872893  0.46099878    -0.81100
C813        C  0.75746287  0.32530408  0.41739962     1.08600
C814        C  0.68894777  0.16489650  0.40785901     1.08500
C815        C  0.81158531  0.27966347  0.42214365     1.08700
C816        C  0.64906228  0.24299043  0.40507168     1.08500
O817        O  0.66051662  0.22038146  0.05813149    -0.81100
O818        O  0.77509721  0.20731104  0.02310210    -0.81100
O819        O  0.77040170  0.31968384  0.00953082    -0.81100
O820        O  0.66501578  0.15226121  0.00278789    -0.81000
O821        O  0.70827404  0.19222669  0.05349451    -0.81100
O822        O  0.72701204  0.28333293  0.06463235    -0.81100
O823        O  0.62524711  0.18671913  0.99561140    -0.81000
O824        O  0.77927121  0.26078446  0.03985726    -0.81100
Co825      Co  0.68920554  0.26344414  0.00963327     1.51500
Co826      Co  0.74132392  0.21743242  0.99261278     1.51700
Co827      Co  0.76181897  0.27516471  0.96871952     1.51600
Co828      Co  0.66382511  0.18808457  0.94712681     1.51500
O829        O  0.70859024  0.23565256  0.97411840    -1.43000
C830        C  0.62929701  0.19859989  0.04229060     1.08600
C831        C  0.78823514  0.23605371  0.05001811     1.08700
C832        C  0.75365862  0.31535813  0.05286035     1.08600
C833        C  0.68249079  0.15976911  0.04592723     1.08600
O834        O  0.53809786  0.30767789  0.02042455    -0.81100
O835        O  0.90245222  0.16691066  0.02987654    -0.81100
O836        O  0.92916031  0.25419163  0.08832120    -0.81100
O837        O  0.00359426  0.17459727  0.04306275    -0.81000
O838        O  0.89101866  0.22385753  0.02523556    -0.81200
O839        O  0.52289444  0.23827168  0.04293705    -0.81100
O840        O  0.94888821  0.18315886  0.08348224    -0.81100
O841        O  0.00207117  0.29026816  0.08998941    -0.81100
C842        C  0.52865745  0.31043140  0.06658792     1.08600
C843        C  0.91555617  0.16276449  0.07349372     1.08500
C844        C  0.89749100  0.23719166  0.07142587     1.08700
C845        C  0.52110260  0.20642724  0.04815796     1.08500
O846        O  0.55758119  0.27150990  0.44919742    -0.81100
O847        O  0.92180426  0.24318724  0.42393559    -0.81100
O848        O  0.00043291  0.31442291  0.48596391    -0.81100
O849        O  0.93022098  0.14333325  0.47838016    -0.81000
O850        O  0.92469433  0.17970756  0.42167281    -0.81100
O851        O  0.51267007  0.29608984  0.41807113    -0.81100
O852        O  0.99922099  0.20032804  0.44947990    -0.81000
O853        O  0.92572980  0.28085990  0.48548786    -0.81100
Co854      Co  0.51084977  0.26334318  0.97731041     1.51500
Co855      Co  0.91847634  0.20959776  0.97611840     1.51700
Co856      Co  0.96745266  0.28626084  0.03590042     1.51600
Co857      Co  0.98134247  0.20170565  0.02018794     1.51500
O858        O  0.96629498  0.23994413  0.00899477    -1.43000
C859        C  0.54066860  0.24130367  0.42536342     1.08600
C860        C  0.91736189  0.26905518  0.43856625     1.08700
C861        C  0.52072576  0.32832653  0.43179831     1.08600
C862        C  0.91713967  0.14728235  0.43526715     1.08600
O863        O  0.73214399  0.43991837  0.07462241    -0.81100
O864        O  0.73601336  0.06486328  0.06262890    -0.81100
O865        O  0.78203881  0.01482229  0.08874886    -0.81100
O866        O  0.65986247  0.44168847  0.07362808    -0.81000
O867        O  0.79843022  0.06715204  0.04596533    -0.81200
O868        O  0.66269618  0.39259970  0.04829218    -0.81100
O869        O  0.67967834  0.03207143  0.04102673    -0.81100
O870        O  0.77296931  0.44848980  0.01433565    -0.81100
C871        C  0.75667625  0.43404074  0.05876169     1.08600
C872        C  0.70420089  0.05872964  0.06475669     1.08500
C873        C  0.80238233  0.04981099  0.08438462     1.08700
C874        C  0.64925712  0.40660631  0.07761350     1.08500
O875        O  0.67071122  0.43837846  0.45231267    -0.81100
O876        O  0.78516905  0.06235930  0.48993005    -0.81100
O877        O  0.75322491  0.46516341  0.41850347    -0.81100
O878        O  0.69752609  0.02968614  0.42749321    -0.81000
O879        O  0.72723206  0.07291325  0.48553258    -0.81100
O880        O  0.72159377  0.41895464  0.47461241    -0.81100
O881        O  0.63709835  0.45992650  0.48098105    -0.81000
O882        O  0.76767499  0.01398797  0.43894292    -0.81100
Co883      Co  0.69902124  0.43785995  0.01814623     1.51500
Co884      Co  0.75924979  0.05735312  0.99877681     1.51700
Co885      Co  0.77484037  0.49056455  0.96830666     1.51600
Co886      Co  0.68031192  0.48094537  0.01052169     1.51500
O887        O  0.73158192  0.49069349  0.00049032    -1.43000
C888        C  0.64073470  0.43844262  0.45093843     1.08600
C889        C  0.78967215  0.04784171  0.44916551     1.08700
C890        C  0.73883164  0.43098140  0.43079170     1.08600
C891        C  0.71279976  0.06317490  0.44010137     1.08600
C892        C  0.70138619  0.09984367  0.25860109    -0.17300
C893        C  0.69372396  0.11930310  0.22310406    -0.32500
H894        H  0.70718784  0.07893479  0.24539756     0.11700
H895        H  0.68792407  0.14014647  0.23664230     0.12200
C896        C  0.84611570  0.26690091  0.22675268    -0.17300
C897        C  0.87132107  0.26959209  0.26130384    -0.32500
H898        H  0.82465203  0.27086611  0.24059299     0.11700
H899        H  0.89258257  0.26536328  0.24727116     0.12200
C900        C  0.85284495  0.07282533  0.28017604    -0.17300
C901        C  0.87961075  0.09435583  0.24556070    -0.32500
H902        H  0.82676158  0.05186249  0.26571180     0.11700
H903        H  0.90537924  0.11601307  0.25994438     0.12200
C904        C  0.58795048  0.21067585  0.21390618    -0.17300
C905        C  0.56564696  0.21142616  0.25012273    -0.32500
H906        H  0.61339038  0.21401298  0.22693915     0.11700
H907        H  0.53998233  0.20771602  0.23756584     0.12200
C908        C  0.59805063  0.39004335  0.27307120    -0.17300
C909        C  0.57199522  0.36704418  0.24021244    -0.32500
H910        H  0.62509174  0.40929218  0.25760148     0.11700
H911        H  0.54496359  0.34808158  0.25593839     0.12200
C912        C  0.75765433  0.36841318  0.22467792    -0.17300
C913        C  0.75631671  0.39345233  0.25554006    -0.32500
H914        H  0.75778939  0.34485692  0.24232299     0.11700
H915        H  0.75550038  0.41666464  0.23806309     0.12200
C916        C  0.75232893  0.37265422  0.66430067     0.79300
N917        N  0.75884239  0.40565836  0.64193263    -0.79000
C918        C  0.75592271  0.40918015  0.58885651     0.81700
N919        N  0.74458899  0.37908547  0.55838073    -0.78900
C920        C  0.73709624  0.34581229  0.58092881     0.81800
N921        N  0.74165533  0.34297799  0.63373636    -0.80700
C922        C  0.75107012  0.38589206  0.81150180     0.79300
N923        N  0.74802221  0.35439413  0.83519908    -0.79000
C924        C  0.73716292  0.34584474  0.88682928     0.81700
N925        N  0.72924328  0.36806337  0.91360155    -0.78900
C926        C  0.73264598  0.39914454  0.89096999     0.81800
N927        N  0.74410084  0.40865105  0.83976401    -0.80700
C928        C  0.58849097  0.38515352  0.83058844     0.79300
N929        N  0.55513344  0.35901038  0.85091986    -0.79000
C930        C  0.54733633  0.35787904  0.90365860     0.81700
N931        N  0.57358541  0.38211231  0.93586461    -0.78900
C932        C  0.60731434  0.40655747  0.91613404     0.81800
N933        N  0.61458195  0.40814260  0.86366700    -0.80700
C934        C  0.58242987  0.36702330  0.68125564     0.79300
N935        N  0.61527887  0.39240154  0.65799129    -0.79000
C936        C  0.62129412  0.38945701  0.60559986     0.81700
N937        N  0.59506685  0.36205915  0.57782868    -0.78900
C938        C  0.56256554  0.33791087  0.60002877     0.81800
N939        N  0.55607327  0.34039916  0.65171185    -0.80700
C940        C  0.58567732  0.21132593  0.65339678     0.79300
N941        N  0.61021378  0.20961474  0.62140429    -0.79000
C942        C  0.60402488  0.20382833  0.56867557     0.81700
N943        N  0.57384328  0.20070176  0.54771296    -0.78900
C944        C  0.54970245  0.20342576  0.57841727     0.81800
N945        N  0.55570448  0.20921854  0.63135509    -0.80700
C946        C  0.57832309  0.22600340  0.80360310     0.79300
N947        N  0.60887548  0.22936666  0.82599638    -0.79000
C948        C  0.61611024  0.23876651  0.87786670     0.81700
N949        N  0.59304025  0.24408469  0.90629346    -0.78900
C950        C  0.56233518  0.23923857  0.88583042     0.81800
N951        N  0.55459797  0.23016513  0.83429810    -0.80700
C952        C  0.87884060  0.10283055  0.83131008     0.79300
N953        N  0.90772725  0.12850954  0.85768380    -0.79000
C954        C  0.90757180  0.12729348  0.91136632     0.81700
N955        N  0.87777394  0.10091183  0.93901205    -0.78900
C956        C  0.84808182  0.07573006  0.91313888     0.81800
N957        N  0.84844427  0.07694685  0.85906564    -0.80700
C958        C  0.85368928  0.08272833  0.68582397     0.79300
N959        N  0.87858261  0.11395957  0.65703328    -0.79000
C960        C  0.87489527  0.11642769  0.60353613     0.81700
N961        N  0.84692620  0.08744042  0.57944274    -0.78900
C962        C  0.82272539  0.05626552  0.60794942     0.81800
N963        N  0.82570704  0.05445631  0.66112750    -0.80700
C964        C  0.83808177  0.24253351  0.67665067     0.79300
N965        N  0.86372583  0.23670495  0.65478376    -0.79000
C966        C  0.86050869  0.22627723  0.60345575     0.81700
N967        N  0.83281714  0.22264794  0.57465298    -0.78900
C968        C  0.80879657  0.23041867  0.59439517     0.81800
N969        N  0.81129617  0.24056775  0.64558702    -0.80700
C970        C  0.86703662  0.26691950  0.82223495     0.79300
N971        N  0.83933147  0.26835864  0.84571807    -0.79000
C972        C  0.84068479  0.27602606  0.89804769     0.81700
N973        N  0.86943893  0.28113138  0.92728130    -0.78900
C974        C  0.89686033  0.27892802  0.90445329     0.81800
N975        N  0.89515700  0.27148455  0.85209679    -0.80700
C976        C  0.67495973  0.08464002  0.81803760     0.79300
N977        N  0.68462907  0.11837531  0.83792217    -0.79000
C978        C  0.69419767  0.12504093  0.88938173     0.81700
N979        N  0.69316862  0.09766850  0.92085553    -0.78900
C980        C  0.68305288  0.06370571  0.90230731     0.81800
N981        N  0.67486369  0.05746564  0.85015100    -0.79800
C982        C  0.67655063  0.10432817  0.66778240     0.79300
N983        N  0.67359849  0.07326482  0.64718161    -0.79000
C984        C  0.67726741  0.07170076  0.59407618     0.81700
N985        N  0.68587851  0.10196043  0.56196900    -0.78900
C986        C  0.68980284  0.13341766  0.58196912     0.81800
N987        N  0.68472489  0.13448423  0.63501651    -0.80700
O988        O  0.71547245  0.30730085  0.96090118    -0.81100
O989        O  0.72244629  0.16929536  0.95555423    -0.81100
O990        O  0.81172323  0.30105684  0.94809708    -0.81100
O991        O  0.65835162  0.21962129  0.89270255    -0.81000
O992        O  0.77858399  0.24165481  0.92854272    -0.81200
O993        O  0.64978117  0.24992718  0.95572359    -0.81100
O994        O  0.69387370  0.18136301  0.89490906    -0.81100
O995        O  0.74917929  0.29638756  0.90599303    -0.81100
C996        C  0.73303483  0.31371316  0.91736272     1.08600
C997        C  0.70561721  0.16119322  0.91237256     1.08500
C998        C  0.80904527  0.27319472  0.92542022     1.08700
C999        C  0.64454749  0.23783084  0.90853463     1.08500
O1000       O  0.66137754  0.23911880  0.52500619    -0.81100
O1001       O  0.78701451  0.22698568  0.50810262    -0.81100
O1002       O  0.73840563  0.29214970  0.56295981    -0.81100
O1003       O  0.68813329  0.18704645  0.55173280    -0.81000
O1004       O  0.71987996  0.16982584  0.50417041    -0.81100
O1005       O  0.71462932  0.31061152  0.50284710    -0.81100
O1006       O  0.62693025  0.17942551  0.50648973    -0.81000
O1007       O  0.77335543  0.25523749  0.56763027    -0.81100
Co1008     Co  0.69846659  0.26433551  0.46102844     1.51500
Co1009     Co  0.74958841  0.21418559  0.45256500     1.51700
Co1010     Co  0.77213877  0.28947111  0.51372906     1.51600
Co1011     Co  0.67656535  0.20580389  0.48579684     1.51500
O1012       O  0.73006689  0.24461170  0.48042171    -1.43000
C1013       C  0.63192898  0.20714389  0.53220543     1.08600
C1014       C  0.78704953  0.23625652  0.55571416     1.08700
C1015       C  0.72817684  0.31410550  0.54828280     1.08600
C1016       C  0.70074322  0.16591529  0.54544736     1.08600
O1017       O  0.54371602  0.30842190  0.51971608    -0.81100
O1018       O  0.88785460  0.15601196  0.52699982    -0.81100
O1019       O  0.92137652  0.24449079  0.58902782    -0.81100
O1020       O  0.98908870  0.16095011  0.54387891    -0.81000
O1021       O  0.88271971  0.21680924  0.52506435    -0.81200
O1022       O  0.52466464  0.23860561  0.54287606    -0.81100
O1023       O  0.93324583  0.16937169  0.58115169    -0.81100
O1024       O  0.99458421  0.28007433  0.59261374    -0.81100
C1025       C  0.53465852  0.31188940  0.56564256     1.08600
C1026       C  0.89989350  0.14991933  0.57038817     1.08500
C1027       C  0.88954473  0.22738744  0.57265036     1.08700
C1028       C  0.52131731  0.20627483  0.55082954     1.08500
O1029       O  0.55510272  0.27347417  0.94945584    -0.81100
O1030       O  0.93051339  0.25064756  0.92414766    -0.81100
O1031       O  0.00655795  0.32408155  0.98445232    -0.81100
O1032       O  0.94616526  0.15610531  0.98275137    -0.81000
O1033       O  0.93947881  0.19109835  0.92488885    -0.81100
O1034       O  0.50702624  0.29308032  0.91721882    -0.81100
O1035       O  0.01283026  0.21377427  0.94950625    -0.81000
O1036       O  0.93146379  0.28784480  0.98383214    -0.81100
Co1037     Co  0.51443512  0.26433051  0.47695913     1.51500
Co1038     Co  0.90717474  0.20067092  0.47469702     1.51700
Co1039     Co  0.96022317  0.27674953  0.53732339     1.51600
Co1040     Co  0.96697170  0.18812596  0.51869861     1.51500
O1041       O  0.95558564  0.22925867  0.50822440    -1.43000
C1042       C  0.53968298  0.24491745  0.92199958     1.08600
C1043       C  0.92250899  0.27414130  0.93801663     1.08700
C1044       C  0.51505242  0.32550682  0.92921300     1.08600
C1045       C  0.93439072  0.15961853  0.93866258     1.08600
O1046       O  0.73464621  0.44999295  0.57759326    -0.81100
O1047       O  0.70241659  0.03394138  0.58967005    -0.81100
O1048       O  0.79236146  0.01344786  0.54112150    -0.81100
O1049       O  0.66748022  0.45042230  0.57104441    -0.81000
O1050       O  0.76053548  0.02518465  0.59465193    -0.81200
O1051       O  0.66701365  0.40064122  0.54477799    -0.81100
O1052       O  0.66558582  0.02946625  0.52693957    -0.81100
O1053       O  0.77828992  0.45801883  0.52352133    -0.81100
C1054       C  0.75866903  0.44284993  0.56519148     1.08600
C1055       C  0.67949295  0.04123891  0.57164117     1.08500
C1056       C  0.79020315  0.02827702  0.58254966     1.08700
C1057       C  0.65436101  0.41482174  0.57493524     1.08500
O1058       O  0.66536647  0.42792333  0.95440215    -0.81100
O1059       O  0.78758757  0.05640313  0.93665542    -0.81100
O1060       O  0.74346633  0.45762420  0.91358234    -0.81100
O1061       O  0.67232802  0.00870194  0.95541318    -0.81000
O1062       O  0.72655681  0.06081189  0.94896956    -0.81100
O1063       O  0.71412516  0.41115051  0.97103593    -0.81100
O1064       O  0.63345073  0.45003426  0.98139223    -0.81000
O1065       O  0.81385864  0.03098786  0.98228972    -0.81100
Co1066     Co  0.70450042  0.44729314  0.51749876     1.51500
Co1067     Co  0.74221251  0.04564764  0.53964656     1.51700
Co1068     Co  0.78317788  0.49967508  0.47399210     1.51600
Co1069     Co  0.68693105  0.48481417  0.50110841     1.51500
O1070       O  0.74031341  0.50186602  0.50492838    -1.43000
C1071       C  0.63635790  0.42879771  0.95215603     1.08600
C1072       C  0.81444108  0.05215045  0.94412917     1.08700
C1073       C  0.72829380  0.42346797  0.92529644     1.08600
C1074       C  0.69422639  0.04182905  0.93505425     1.08600
C1075       C  0.66953106  0.07925517  0.76044694    -0.17300
C1076       C  0.67468754  0.10697907  0.72582852    -0.32500
H1077       H  0.66407141  0.05265711  0.74579043     0.11700
H1078       H  0.68031666  0.13363954  0.74046953     0.12200
C1079       C  0.83958201  0.25278560  0.73278520    -0.17300
C1080       C  0.86611020  0.25774156  0.76565697    -0.32500
H1081       H  0.81773224  0.25619286  0.74758178     0.11700
H1082       H  0.88813988  0.25468125  0.75072176     0.12200
C1083       C  0.88007416  0.10557292  0.77299762    -0.17300
C1084       C  0.85452857  0.07959662  0.74390988    -0.32500
H1085       H  0.90319869  0.13046637  0.75304483     0.11700
H1086       H  0.83189792  0.05438010  0.76410217     0.12200
C1087       C  0.59312613  0.21706765  0.71120439    -0.17300
C1088       C  0.57033580  0.21850502  0.74625707    -0.32500
H1089       H  0.61846797  0.22049721  0.72514570     0.11700
H1090       H  0.54506221  0.21518561  0.73219874     0.12200
C1091       C  0.59808411  0.38798742  0.77353391    -0.17300
C1092       C  0.57378785  0.36659117  0.73810770    -0.32500
H1093       H  0.62552535  0.40767753  0.76076941     0.11700
H1094       H  0.54648229  0.34680421  0.75134731     0.12200
C1095       C  0.75386352  0.36772527  0.72175529    -0.17300
C1096       C  0.75849329  0.39402436  0.75459169    -0.32500
H1097       H  0.74747798  0.34020453  0.73766650     0.11700
H1098       H  0.76350362  0.42106440  0.73867223     0.12200
C1099       C  0.75528269  0.86946094  0.17987074     0.79300
N1100       N  0.75950093  0.90140831  0.15628483    -0.79000
C1101       C  0.76465575  0.90762093  0.10270270     0.81700
N1102       N  0.76447216  0.88132181  0.07253582    -0.78900
C1103       C  0.75916177  0.84887080  0.09515167     0.81800
N1104       N  0.75457074  0.84297345  0.14890774    -0.80700
C1105       C  0.75079118  0.88263003  0.33134374     0.79300
N1106       N  0.75324719  0.85402973  0.35463953    -0.79000
C1107       C  0.75525247  0.85108239  0.40837110     0.81700
N1108       N  0.75366846  0.87645786  0.43899792    -0.78900
C1109       C  0.74991867  0.90444252  0.41657263     0.81800
N1110       N  0.74860881  0.90743987  0.36261746    -0.80700
C1111       C  0.57620695  0.88902882  0.33731197     0.79300
N1112       N  0.54575435  0.86024222  0.36165090    -0.79000
C1113       C  0.54598193  0.85256065  0.41474685     0.81700
N1114       N  0.57708138  0.87201617  0.44194979    -0.78900
C1115       C  0.60743782  0.89962871  0.41697646     0.81800
N1116       N  0.60650560  0.90850643  0.36530351    -0.80700
C1117       C  0.57046956  0.87644625  0.18915818     0.79300
N1118       N  0.60003081  0.90791760  0.16787262    -0.79000
C1119       C  0.60979886  0.90911291  0.11608651     0.81700
N1120       N  0.59044626  0.87885925  0.08633155    -0.78900
C1121       C  0.56145950  0.84760176  0.10790441     0.81800
N1122       N  0.55142284  0.84679434  0.15887866    -0.80700
C1123       C  0.58718008  0.70829913  0.17655810     0.79300
N1124       N  0.61634245  0.71491096  0.14674134    -0.79000
C1125       C  0.61691661  0.72037801  0.09319795     0.81700
N1126       N  0.58780354  0.71809338  0.06928974    -0.78900
C1127       C  0.55802788  0.71015775  0.09814512     0.81800
N1128       N  0.55784729  0.70598904  0.15209672    -0.80700
C1129       C  0.57245927  0.71229130  0.32657226     0.79300
N1130       N  0.60288576  0.71497909  0.34807782    -0.79000
C1131       C  0.61076936  0.72451313  0.39943759     0.81700
N1132       N  0.58933037  0.73208606  0.42810316    -0.78900
C1133       C  0.55928877  0.72913683  0.40813540     0.81800
N1134       N  0.55038519  0.71909525  0.35707680    -0.80700
C1135       C  0.87362742  0.61923286  0.32092407     0.79300
N1136       N  0.90378196  0.64480244  0.34448417    -0.79000
C1137       C  0.90451114  0.64723584  0.39741016     0.81700
N1138       N  0.87415896  0.62527897  0.42773298    -0.78900
C1139       C  0.84308866  0.59980612  0.40456586     0.81800
N1140       N  0.84318949  0.59615775  0.35079608    -0.80700
C1141       C  0.86066108  0.59029994  0.17701802     0.79300
N1142       N  0.88508191  0.62256345  0.15009833    -0.79000
C1143       C  0.88651836  0.62406121  0.09617673     0.81700
N1144       N  0.86384425  0.59327417  0.06942663    -0.78900
C1145       C  0.83998525  0.56094338  0.09585385     0.81800
N1146       N  0.83794114  0.55989347  0.14968558    -0.80700
C1147       C  0.84385611  0.75600094  0.17988990     0.79300
N1148       N  0.87085915  0.75235621  0.15742211    -0.79000
C1149       C  0.86770235  0.74094474  0.10641676     0.81700
N1150       N  0.83831279  0.73408868  0.07870516    -0.78900
C1151       C  0.81220528  0.73884353  0.09925483     0.81800
N1152       N  0.81496593  0.74999017  0.14997713    -0.80700
C1153       C  0.87159033  0.78215632  0.32712020     0.79300
N1154       N  0.84213392  0.78000988  0.35086898    -0.79000
C1155       C  0.84175811  0.78517780  0.40410488     0.81700
N1156       N  0.87054393  0.79123846  0.43380332    -0.78900
C1157       C  0.89963174  0.79242484  0.41102331     0.81800
N1158       N  0.89971429  0.78754465  0.35781419    -0.80700
C1159       C  0.68418425  0.58355519  0.32786316     0.79300
N1160       N  0.68087840  0.61213188  0.34583355    -0.79000
C1161       C  0.68720083  0.62115555  0.39777059     0.81700
N1162       N  0.69899792  0.60287226  0.43032565    -0.78900
C1163       C  0.70317472  0.57508714  0.41172539     0.81800
N1164       N  0.69493796  0.56516955  0.36103466    -0.79800
C1165       C  0.68714250  0.59281145  0.17741873     0.79300
N1166       N  0.68569249  0.56163311  0.16016272    -0.79000
C1167       C  0.69216287  0.55998093  0.10792052     0.81700
N1168       N  0.70023653  0.58896440  0.07342281    -0.78900
C1169       C  0.70257691  0.62006226  0.09105479     0.81800
N1170       N  0.69543441  0.62162991  0.14275127    -0.80700
O1171       O  0.72871513  0.78554952  0.41881118    -0.81100
O1172       O  0.71171693  0.68593386  0.40569103    -0.81100
O1173       O  0.80789149  0.78470194  0.47925439    -0.81100
O1174       O  0.65382366  0.70814565  0.43139073    -0.81000
O1175       O  0.77849908  0.74887977  0.41335100    -0.81200
O1176       O  0.66012620  0.76271586  0.44890358    -0.81100
O1177       O  0.66687012  0.64976116  0.45839181    -0.81100
O1178       O  0.76805868  0.81959677  0.47863251    -0.81100
C1179       C  0.75248642  0.81724092  0.43438486     1.08600
C1180       C  0.68618828  0.65357716  0.41791613     1.08500
C1181       C  0.80751266  0.77418909  0.43219423     1.08700
C1182       C  0.64392210  0.73253001  0.42517793     1.08500
O1183       O  0.65580965  0.74489274  0.01698449    -0.81100
O1184       O  0.78344278  0.72243561  0.01734718    -0.81100
O1185       O  0.78396070  0.82296452  0.03858392    -0.81100
O1186       O  0.69471438  0.66897059  0.06768725    -0.81000
O1187       O  0.72352169  0.65551489  0.00912156    -0.81100
O1188       O  0.72446514  0.79206017  0.04889310    -0.81100
O1189       O  0.66349781  0.70900945  0.07218501    -0.81000
O1190       O  0.76647460  0.75168706  0.07116280    -0.81100
Co1191     Co  0.70313149  0.76263237  0.97861965     1.51500
Co1192     Co  0.74584027  0.70241202  0.96087885     1.51700
Co1193     Co  0.75659330  0.77536497  0.00858891     1.51600
Co1194     Co  0.66812110  0.68003001  0.01567479     1.51500
O1195       O  0.71672870  0.72396244  0.99022393    -1.43000
C1196       C  0.64752624  0.72610991  0.06037792     1.08600
C1197       C  0.78465808  0.73627091  0.06223118     1.08700
C1198       C  0.75600344  0.81987869  0.06011422     1.08600
C1199       C  0.70828705  0.65019922  0.05444693     1.08600
O1200       O  0.54912954  0.81183261  0.03150985    -0.81100
O1201       O  0.89645468  0.66628418  0.02448648    -0.81100
O1202       O  0.92931856  0.75910896  0.09070721    -0.81100
O1203       O  0.99766199  0.67096208  0.03143149    -0.81000
O1204       O  0.88923857  0.72671375  0.03004392    -0.81200
O1205       O  0.53115446  0.74198547  0.05867095    -0.81100
O1206       O  0.94308181  0.67851148  0.07540768    -0.81100
O1207       O  0.00309343  0.79156493  0.08890950    -0.81100
C1208       C  0.53797149  0.81669528  0.07511587     1.08600
C1209       C  0.90969169  0.65902794  0.06555520     1.08500
C1210       C  0.89696054  0.74092246  0.07580456     1.08700
C1211       C  0.52846863  0.71025379  0.06982302     1.08500
O1212       O  0.55598846  0.76896965  0.46756318    -0.81100
O1213       O  0.93329878  0.76423519  0.42836501    -0.81100
O1214       O  0.00765078  0.83336400  0.48321201    -0.81100
O1215       O  0.95276714  0.66790894  0.45527006    -0.81000
O1216       O  0.94414504  0.70887850  0.41704921    -0.81100
O1217       O  0.50761964  0.78845467  0.43441278    -0.81100
O1218       O  0.02526192  0.71485568  0.45336196    -0.81000
O1219       O  0.93256038  0.79759233  0.49159015    -0.81100
Co1220     Co  0.52065280  0.76534171  0.99096307     1.51500
Co1221     Co  0.91422805  0.71248687  0.97583040     1.51700
Co1222     Co  0.96772979  0.78848285  0.03615580     1.51600
Co1223     Co  0.97536279  0.69911968  0.01209392     1.51500
O1224       O  0.96263125  0.73988889  0.00901229    -1.43000
C1225       C  0.53909462  0.73890650  0.44336865     1.08600
C1226       C  0.92437704  0.78627628  0.44465025     1.08700
C1227       C  0.51481931  0.82108448  0.44314181     1.08600
C1228       C  0.93694268  0.67596541  0.42067154     1.08600
O1229       O  0.73818794  0.94490449  0.08531453    -0.81100
O1230       O  0.71464930  0.52037826  0.09310042    -0.81100
O1231       O  0.81313062  0.52514324  0.01977422    -0.81100
O1232       O  0.63433059  0.96199117  0.05649961    -0.81000
O1233       O  0.77860630  0.52450814  0.08368408    -0.81200
O1234       O  0.67278236  0.94898448  0.09415725    -0.81100
O1235       O  0.67064684  0.51455358  0.04728853    -0.81100
O1236       O  0.78919499  0.96070496  0.04193456    -0.81100
C1237       C  0.76452061  0.93937003  0.07588466     1.08600
C1238       C  0.69002043  0.52767605  0.08635288     1.08500
C1239       C  0.80927526  0.53299615  0.06677339     1.08700
C1240       C  0.64027962  0.94259821  0.09031001     1.08500
O1241       O  0.64616504  0.91063774  0.48951202    -0.81100
O1242       O  0.80502876  0.58131681  0.48400349    -0.81100
O1243       O  0.77346643  0.95421808  0.47660534    -0.81100
O1244       O  0.70112248  0.51948374  0.43851463    -0.81000
O1245       O  0.73494881  0.56970936  0.48551762    -0.81100
O1246       O  0.71576743  0.92904362  0.45756039    -0.81100
O1247       O  0.66202676  0.95492151  0.43048038    -0.81000
O1248       O  0.79232775  0.54041369  0.42304283    -0.81100
Co1249     Co  0.69945397  0.94088959  0.03354326     1.51500
Co1250     Co  0.75292830  0.54079215  0.03644509     1.51700
Co1251     Co  0.76842192  0.98952038  0.01779045     1.51600
Co1252     Co  0.68214870  0.98785799  0.02535295     1.51500
O1253       O  0.72991133  0.99984472  0.00130626    -1.43000
C1254       C  0.64052857  0.92191031  0.44581477     1.08600
C1255       C  0.81111058  0.57316076  0.43812441     1.08700
C1256       C  0.74641839  0.93048905  0.45139187     1.08600
C1257       C  0.71448049  0.55400690  0.44625935     1.08600
C1258       C  0.67974949  0.57370636  0.27190798    -0.17300
C1259       C  0.68212414  0.59768862  0.23345072    -0.32500
H1260       H  0.67926386  0.54855278  0.26200888     0.11700
H1261       H  0.68411325  0.62352469  0.24350360     0.12200
C1262       C  0.84475955  0.76639280  0.23640282    -0.17300
C1263       C  0.87220930  0.77436238  0.26963491    -0.32500
H1264       H  0.82143968  0.76675128  0.25129808     0.11700
H1265       H  0.89564835  0.77421185  0.25479705     0.12200
C1266       C  0.87552091  0.61903684  0.26299301    -0.17300
C1267       C  0.85584516  0.58876420  0.23518431    -0.32500
H1268       H  0.89615802  0.64460357  0.24295490     0.11700
H1269       H  0.83604996  0.56274738  0.25515043     0.12200
C1270       C  0.58950722  0.70641785  0.23520445    -0.17300
C1271       C  0.56535991  0.70647220  0.26896538    -0.32500
H1272       H  0.61374976  0.70816797  0.25083025     0.11700
H1273       H  0.54146552  0.70558598  0.25352349     0.12200
C1274       C  0.57918569  0.89783656  0.28004108    -0.17300
C1275       C  0.55964286  0.87226885  0.24542687    -0.32500
H1276       H  0.60262856  0.92442765  0.26565323     0.11700
H1277       H  0.53709479  0.84506393  0.25993532     0.12200
C1278       C  0.75203136  0.86344252  0.23878244    -0.17300
C1279       C  0.75117792  0.88739123  0.27233554    -0.32500
H1280       H  0.75112146  0.83828134  0.25532718     0.11700
H1281       H  0.75164194  0.91233299  0.25584294     0.12200
C1282       C  0.73922979  0.86189992  0.68047704     0.79300
N1283       N  0.73317930  0.88770183  0.65559162    -0.79000
C1284       C  0.72159684  0.88275488  0.60486321     0.81700
N1285       N  0.71615030  0.85272912  0.57931017    -0.78900
C1286       C  0.72287978  0.82755648  0.60250435     0.81800
N1287       N  0.73458930  0.83200596  0.65346853    -0.80700
C1288       C  0.75094201  0.88939993  0.82642059     0.79300
N1289       N  0.74758462  0.85830869  0.85189629    -0.79000
C1290       C  0.74444691  0.85450404  0.90560353     0.81700
N1291       N  0.74311148  0.88057215  0.93324723    -0.78900
C1292       C  0.74620472  0.91133387  0.90925349     0.81800
N1293       N  0.75001254  0.91603530  0.85531985    -0.80700
C1294       C  0.58800840  0.89562914  0.83779429     0.79300
N1295       N  0.55805391  0.86543653  0.86069227    -0.79000
C1296       C  0.55491113  0.86016142  0.91441832     0.81700
N1297       N  0.58269188  0.88418166  0.94480342    -0.78900
C1298       C  0.61278498  0.91397023  0.92222619     0.81800
N1299       N  0.61520601  0.91980082  0.86875136    -0.80700
C1300       C  0.57553312  0.87765826  0.68905517     0.79300
N1301       N  0.60357414  0.90815698  0.66325495    -0.79000
C1302       C  0.60723964  0.90869227  0.60946001     0.81700
N1303       N  0.58415695  0.87815674  0.58247848    -0.78900
C1304       C  0.55692456  0.84757467  0.60825256     0.81800
N1305       N  0.55229830  0.84771454  0.66128413    -0.80700
C1306       C  0.58578025  0.70362339  0.67018797     0.79300
N1307       N  0.60777933  0.69820370  0.63765060    -0.79000
C1308       C  0.60124421  0.69330245  0.58484120     0.81700
N1309       N  0.57309956  0.69508582  0.56419233    -0.78900
C1310       C  0.55130832  0.70143885  0.59544508     0.81800
N1311       N  0.55771603  0.70589867  0.64867147    -0.80700
C1312       C  0.58239091  0.71662148  0.82286663     0.79300
N1313       N  0.60919353  0.71190857  0.84404405    -0.79000
C1314       C  0.61507440  0.71448587  0.89748654     0.81700
N1315       N  0.59495058  0.72308664  0.92897452    -0.78900
C1316       C  0.56869694  0.72838805  0.90849353     0.81800
N1317       N  0.56231126  0.72476734  0.85549064    -0.80700
C1318       C  0.86345680  0.60205572  0.82388990     0.79300
N1319       N  0.89468275  0.62798786  0.84710476    -0.79000
C1320       C  0.89475747  0.63282612  0.90063512     0.81700
N1321       N  0.86354746  0.61313927  0.92964307    -0.78900
C1322       C  0.83250755  0.58845554  0.90629145     0.81800
N1323       N  0.83287126  0.58255296  0.85391281    -0.80700
C1324       C  0.88285542  0.60519285  0.67336971     0.79300
N1325       N  0.90699997  0.63278497  0.64004428    -0.79000
C1326       C  0.90190637  0.63044510  0.58720759     0.81700
N1327       N  0.87481093  0.59991007  0.56653808    -0.78900
C1328       C  0.85057255  0.57166754  0.59850253     0.81800
N1329       N  0.85337352  0.57485633  0.65263610    -0.80700
C1330       C  0.84325930  0.74762825  0.68196730     0.79300
N1331       N  0.87259759  0.74815263  0.65980109    -0.79000
C1332       C  0.87094093  0.73728853  0.60878869     0.81700
N1333       N  0.84087015  0.72711606  0.58070337    -0.78900
C1334       C  0.81277220  0.72822523  0.60112654     0.81800
N1335       N  0.81392836  0.73856380  0.65184335    -0.80700
C1336       C  0.86911565  0.77754421  0.82653029     0.79300
N1337       N  0.83936232  0.77538334  0.84925514    -0.79000
C1338       C  0.83800347  0.77975951  0.90250224     0.81700
N1339       N  0.86622360  0.78465160  0.93327861    -0.78900
C1340       C  0.89578671  0.78613789  0.91077818     0.81800
N1341       N  0.89666942  0.78242160  0.85765689    -0.80700
C1342       C  0.68440060  0.58106787  0.82694376     0.79300
N1343       N  0.68040131  0.60866633  0.84673364    -0.79000
C1344       C  0.68364576  0.61459271  0.89961228     0.81700
N1345       N  0.69307598  0.59431094  0.93199194    -0.78900
C1346       C  0.69794173  0.56738206  0.91235843     0.81800
N1347       N  0.69287862  0.56034643  0.85996141    -0.79800
C1348       C  0.68479726  0.59579334  0.67600560     0.79300
N1349       N  0.68687361  0.56695145  0.65639603    -0.79000
C1350       C  0.69174188  0.56591849  0.60336374     0.81700
N1351       N  0.69617786  0.59450576  0.57063880    -0.78900
C1352       C  0.69491888  0.62364137  0.58995877     0.81800
N1353       N  0.68875932  0.62402218  0.64261160    -0.80700
O1354       O  0.70095347  0.80405872  0.95586739    -0.81100
O1355       O  0.70928630  0.67889657  0.90629295    -0.81100
O1356       O  0.80270972  0.78452647  0.97234854    -0.81100
O1357       O  0.63659966  0.68860514  0.96322888    -0.81000
O1358       O  0.77369521  0.74606508  0.91067414    -0.81200
O1359       O  0.67715006  0.73676429  0.91405287    -0.81100
O1360       O  0.66652167  0.64269134  0.96425651    -0.81100
O1361       O  0.75246952  0.80521518  0.94190969    -0.81100
C1362       C  0.73197840  0.81923431  0.93422395     1.08600
C1363       C  0.68400490  0.64696542  0.92118606     1.08500
C1364       C  0.80333733  0.77131780  0.92817726     1.08700
C1365       C  0.64455612  0.71119076  0.92286641     1.08500
O1366       O  0.65839303  0.72658206  0.54066847    -0.81100
O1367       O  0.78709798  0.71992406  0.51595174    -0.81100
O1368       O  0.73472345  0.77997214  0.58179886    -0.81100
O1369       O  0.68743865  0.67423226  0.56229607    -0.81000
O1370       O  0.72055231  0.66029670  0.51141354    -0.81100
O1371       O  0.70888743  0.79641137  0.52219555    -0.81100
O1372       O  0.62394526  0.66682583  0.52363173    -0.81000
O1373       O  0.76987823  0.74357217  0.57770760    -0.81100
Co1374     Co  0.69455487  0.75320116  0.47618451     1.51500
Co1375     Co  0.74819250  0.70552714  0.46157287     1.51700
Co1376     Co  0.76749873  0.77904129  0.52785145     1.51600
Co1377     Co  0.67356494  0.69384791  0.49965886     1.51500
O1378       O  0.72665756  0.73396751  0.49240894    -1.43000
C1379       C  0.62877917  0.69497292  0.54829346     1.08600
C1380       C  0.78713648  0.72856306  0.56394429     1.08700
C1381       C  0.72078056  0.79885598  0.56865462     1.08600
C1382       C  0.70185272  0.65493258  0.55364018     1.08600
O1383       O  0.54145186  0.80876675  0.53505195    -0.81100
O1384       O  0.90777876  0.67413817  0.52101831    -0.81100
O1385       O  0.93426702  0.76314765  0.59239491    -0.81100
O1386       O  0.00379862  0.69895756  0.56330295    -0.81000
O1387       O  0.89574990  0.73070697  0.53051931    -0.81200
O1388       O  0.52468993  0.73716930  0.56316276    -0.81100
O1389       O  0.95578399  0.67615494  0.55610174    -0.81100
O1390       O  0.00813689  0.79923084  0.58517974    -0.81100
C1391       C  0.53155842  0.81546660  0.57831056     1.08600
C1392       C  0.92274471  0.66217212  0.55352290     1.08500
C1393       C  0.90220022  0.74273838  0.57739967     1.08700
C1394       C  0.52242714  0.70503643  0.56920871     1.08500
O1395       O  0.56464461  0.77137028  0.96349517    -0.81100
O1396       O  0.92758321  0.75564690  0.92755877    -0.81100
O1397       O  0.00705532  0.82306918  0.98123087    -0.81100
O1398       O  0.93832754  0.65627115  0.96922012    -0.81000
O1399       O  0.93310741  0.69556193  0.91885403    -0.81100
O1400       O  0.51809180  0.79461489  0.92928642    -0.81100
O1401       O  0.00636452  0.71323957  0.94172208    -0.81000
O1402       O  0.93126114  0.79270666  0.98866136    -0.81100
Co1403     Co  0.51253065  0.76135412  0.49680420     1.51500
Co1404     Co  0.92309581  0.72129199  0.47503552     1.51700
Co1405     Co  0.97112460  0.79565709  0.53723570     1.51600
Co1406     Co  0.98388073  0.70915129  0.50128488     1.51500
O1407       O  0.97200329  0.75060350  0.50817632    -1.43000
C1408       C  0.54859212  0.73945801  0.94389807     1.08600
C1409       C  0.92067770  0.77945081  0.94324739     1.08700
C1410       C  0.52419663  0.82662136  0.94067971     1.08600
C1411       C  0.92601916  0.66284277  0.92721572     1.08600
O1412       O  0.68429441  0.89333888  0.55078464    -0.81100
O1413       O  0.72292906  0.53383939  0.59213160    -0.81100
O1414       O  0.82044957  0.53464806  0.52569711    -0.81100
O1415       O  0.63230133  0.95287209  0.53710682    -0.81000
O1416       O  0.78826013  0.54052386  0.58769226    -0.81200
O1417       O  0.66917226  0.94418661  0.58833544    -0.81100
O1418       O  0.67863716  0.52064604  0.54022367    -0.81100
O1419       O  0.73647910  0.94305804  0.56934288    -0.81100
C1420       C  0.71342664  0.90775546  0.57555567     1.08600
C1421       C  0.69610690  0.53665137  0.58061896     1.08500
C1422       C  0.81770837  0.54477141  0.57183108     1.08700
C1423       C  0.63816070  0.93921760  0.57967743     1.08500
O1424       O  0.65553514  0.92152748  0.98681775    -0.81100
O1425       O  0.79599626  0.57047282  0.98553756    -0.81100
O1426       O  0.76252913  0.96918735  0.94614733    -0.81100
O1427       O  0.69121932  0.51024095  0.94316678    -0.81000
O1428       O  0.72766638  0.56011401  0.98773321    -0.81100
O1429       O  0.71637018  0.91954127  0.97961354    -0.81100
O1430       O  0.65748555  0.97200528  0.95683161    -0.81000
O1431       O  0.78023518  0.53135102  0.92174694    -0.81100
Co1432     Co  0.69370053  0.93992624  0.52520947     1.51500
Co1433     Co  0.76137189  0.55318694  0.53623862     1.51700
Co1434     Co  0.74867198  0.97817440  0.50065463     1.51600
Co1435     Co  0.66688258  0.99151908  0.48133907     1.51500
O1436       O  0.71212718  0.99423189  0.51044390    -1.43000
C1437       C  0.64379607  0.93707635  0.95543875     1.08600
C1438       C  0.80036691  0.56325089  0.93847485     1.08700
C1439       C  0.74053126  0.93515536  0.94400690     1.08600
C1440       C  0.70709378  0.54507540  0.94827839     1.08600
C1441       C  0.68246703  0.57493390  0.76951357    -0.17300
C1442       C  0.68093487  0.59854400  0.73350569    -0.32500
H1443       H  0.68501215  0.55198091  0.75655459     0.11700
H1444       H  0.67928590  0.62203275  0.74643303     0.12200
C1445       C  0.84264710  0.75823775  0.73738696    -0.17300
C1446       C  0.87081800  0.77026290  0.76972003    -0.32500
H1447       H  0.81754979  0.75525832  0.75233697     0.11700
H1448       H  0.89582559  0.77302401  0.75483476     0.12200
C1449       C  0.86083695  0.59363468  0.76676259    -0.17300
C1450       C  0.88781048  0.61181456  0.73109172    -0.32500
H1451       H  0.83468925  0.57198438  0.75324170     0.11700
H1452       H  0.91370113  0.63444057  0.74384144     0.12200
C1453       C  0.59365018  0.70737826  0.72830720    -0.17300
C1454       C  0.57449146  0.71337499  0.76471667    -0.32500
H1455       H  0.61637533  0.70485376  0.74158387     0.11700
H1456       H  0.55191188  0.71617605  0.75149938     0.12200
C1457       C  0.59285612  0.90118062  0.77951252    -0.17300
C1458       C  0.56984574  0.87521651  0.74702199    -0.32500
H1459       H  0.61669247  0.92598025  0.76335572     0.11700
H1460       H  0.54646449  0.85012015  0.76356018     0.12200
C1461       C  0.74785759  0.86443184  0.73757746    -0.17300
C1462       C  0.75019225  0.89153036  0.76764587    -0.32500
H1463       H  0.74956498  0.84133398  0.75639991     0.11700
H1464       H  0.74856706  0.91469252  0.74888800     0.12200
loop_ 
_geom_bond_atom_site_label_1 
_geom_bond_atom_site_label_2 
_geom_bond_distance 
_geom_bond_site_symmetry_2 
_ccdc_geom_bond_type 
C1            N2   1.369       .  A
C1            N6   1.358       .  A
C1          C180   1.477       .  S
N2            C3   1.362       .  A
C3            N4   1.355       .  A
C3          C139   1.467       .  S
N4            C5   1.351       .  A
C5            N6   1.354       .  A
C5          C100   1.456       .  S
C7            N8   1.368       .  A
C7           N12   1.353       .  A
C7          C181   1.473       .  S
N8            C9   1.365       .  A
C9           N10   1.356       .  A
C9           C81   1.467       .  S
N10          C11   1.352       .  A
C11          N12   1.350       .  A
C11         C158   1.451       .  S
C13          N14   1.374       .  A
C13          N18   1.343       .  A
C13         C176   1.469       .  S
N14          C15   1.370       .  A
C15          N16   1.366       .  A
C15         C129   1.497       .  S
N16          C17   1.364       .  A
C17          N18   1.338       .  A
C17         C156   1.450       .  S
C19          N20   1.379       .  A
C19          N24   1.350       .  A
C19         C177   1.469       .  S
N20          C21   1.370       .  A
C21          N22   1.343       .  A
C21         C142   1.466       .  S
N22          C23   1.341       .  A
C23          N24   1.344       .  A
C23         C110   1.434       .  S
C25          N26   1.358       .  A
C25          N30   1.367       .  A
C25         C172   1.479       .  S
N26          C27   1.355       .  A
C27          N28   1.357       .  A
C27          C98   1.465       .  S
N28          C29   1.358       .  A
C29          N30   1.363       .  A
C29         C113   1.472       .  S
C31          N32   1.373       .  A
C31          N36   1.368       .  A
C31         C173   1.483       .  S
N32          C33   1.359       .  A
C33          N34   1.336       .  A
C33          C84   1.448       .  S
N34          C35   1.336       .  A
C35          N36   1.359       .  A
C35         C127   1.444       .  S
C37          N38   1.354       .  A
C37          N42   1.355       .  A
C37         C168   1.451       .  S
N38          C39   1.346       .  A
C39          N40   1.359       .  A
C39         C130   1.450       .  S
N40          C41   1.357       .  A
C41          N42   1.353       .  A
C41         C157   1.457       .  S
C43          N44   1.357       .  A
C43          N48   1.355       .  A
C43         C169   1.453       .  S
N44          C45   1.354       .  A
C45          N46   1.357       .  A
C45         C111   1.461       .  S
N46          C47   1.358       .  A
C47          N48   1.344       .  A
C47         C141   1.451       .  S
C49          N50   1.353       .  A
C49          N54   1.371       .  A
C49         C164   1.488       .  S
N50          C51   1.354       .  A
C51          N52   1.353       .  A
C51         C112   1.462       .  S
N52          C53   1.360       .  A
C53          N54   1.369       .  A
C53          C99   1.476       .  S
C55          N56   1.350       .  A
C55          N60   1.372       .  A
C55         C165   1.485       .  S
N56          C57   1.350       .  A
C57          N58   1.356       .  A
C57          C83   1.459       .  S
N58          C59   1.361       .  A
C59          N60   1.373       .  A
C59         C128   1.486       .  S
C61          N62   1.370       .  A
C61          N66   1.359       .  A
C61         C160   1.483       .  S
N62          C63   1.363       .  A
C63          N64   1.358       .  A
C63          C82   1.475       .  S
N64          C65   1.356       .  A
C65          N66   1.356       .  A
C65         C159   1.467       .  S
C67          N68   1.369       .  A
C67          N72   1.353       .  A
C67         C161   1.479       .  S
N68          C69   1.368       .  A
C69          N70   1.364       .  A
C69         C140   1.485       .  S
N70          C71   1.359       .  A
C71          N72   1.351       .  A
C71         C101   1.467       .  S
O73          C81   1.261       .  A
O73        Co276   1.965       .  S
O74          C82   1.256       .  A
O74        Co277   1.979       .  S
O75          C83   1.270       .  A
O75        Co278   2.023       .  S
O76          C84   1.290       .  A
O76        Co279   2.099       .  S
O77          C83   1.262       .  A
O77        Co277   1.963       .  S
O78          C84   1.264       .  A
O78        Co276   1.869       .  S
O79          C82   1.264       .  A
O79        Co279   2.016       .  S
O80          C81   1.283       .  A
O80        Co278   2.051       .  S
O85          C98   1.269       .  A
O85         Co93   1.965       .  S
O86          C99   1.254       .  A
O86         Co94   1.975       .  S
O87         C100   1.283       .  A
O87         Co95   2.073   1_554  S
O88         C101   1.273       .  A
O88         Co96   2.041   1_554  S
O89         C101   1.257       .  A
O89         Co94   1.958       .  S
O90         C100   1.265       .  A
O90         Co93   1.914       .  S
O91          C98   1.283       .  A
O91         Co96   2.042   1_554  S
O92          C99   1.267       .  A
O92         Co95   2.032   1_554  S
Co93        O256   2.068   1_554  S
Co93        O261   1.989   1_554  S
Co93         O97   1.968   1_554  S
Co94        O257   1.995   1_554  S
Co94        O260   2.030   1_554  S
Co94         O97   1.996   1_554  S
Co95        O258   1.943       .  S
Co95        O263   1.913       .  S
Co95         O97   2.020       .  S
Co96        O259   2.005       .  S
Co96        O262   1.973       .  S
Co96         O97   2.056       .  S
O102        C110   1.257       .  A
O102       Co122   1.966   1_554  S
O103        C111   1.282       .  A
O103       Co123   2.032   1_554  S
O104        C112   1.252       .  A
O104       Co124   1.944       .  S
O105        C845   1.262       .  A
O105       Co125   1.909       .  S
O106        C112   1.275       .  A
O106       Co123   2.047   1_554  S
O107        C113   1.297       .  A
O107       Co122   2.127   1_554  S
O108        C111   1.272       .  A
O108       Co125   1.971       .  S
O109        C842   1.254       .  A
O109       Co124   1.987       .  S
C110        O841   1.255       .  A
C113        O837   1.262       .  A
O114        C127   1.264       .  A
O114       Co305   1.854       .  S
O115        C128   1.262       .  A
O115       Co306   1.978       .  S
O116        C861   1.276       .  A
O116       Co307   2.033       .  S
O117        C130   1.256       .  A
O117       Co308   1.996       .  S
O118        C130   1.253       .  A
O118       Co306   1.960       .  S
O119        C129   1.270       .  A
O119       Co305   1.994       .  S
O120        C859   1.291       .  A
O120       Co308   2.102       .  S
O121        C128   1.281       .  A
O121       Co307   2.051       .  S
Co122       O297   1.868       .  S
Co122       O302   1.979       .  S
Co122       O858   1.976   1_456  S
Co123       O298   1.957       .  S
Co123       O301   1.968       .  S
Co123       O126   2.017       .  S
Co124       O299   2.036   1_554  S
Co124       O304   2.056   1_554  S
Co124       O126   2.041   1_554  S
Co125       O300   2.000   1_554  S
Co125       O303   2.117   1_554  S
Co125       O126   2.017   1_554  S
O126       Co854   1.977       .  S
C127        O852   1.293   1_455  A
C129        O848   1.281       .  A
O131        C139   1.260       .  A
O131       Co151   1.972       .  S
O132        C140   1.259       .  A
O132       Co152   1.992       .  S
O133        C141   1.250       .  A
O133       Co519   1.985   1_545  S
O134        C142   1.296       .  A
O134       Co154   2.121       .  S
O135        C141   1.250       .  A
O135       Co152   1.960       .  S
O136        C142   1.264       .  A
O136       Co151   1.880       .  S
O137        C140   1.265       .  A
O137       Co520   2.023   1_544  S
O138        C139   1.278       .  A
O138       Co153   2.040   1_554  S
O143        C156   1.275       .  A
O143       Co334   2.062       .  S
O144        C157   1.253       .  A
O144       Co335   1.999       .  S
O145        C158   1.254       .  A
O145       Co336   1.958       .  S
O146        C159   1.262       .  A
O146       Co703   1.979   1_545  S
O147        C159   1.269       .  A
O147       Co335   2.015       .  S
O148        C158   1.266       .  A
O148       Co334   2.011       .  S
O149        C156   1.229       .  A
O149       Co337   1.912       .  S
O150        C157   1.243       .  A
O150       Co702   1.963   1_545  S
Co151       O326   2.112   1_554  S
Co151       O331   2.012   1_554  S
Co151       O155   1.991       .  S
Co152       O327   2.049       .  S
Co152       O330   1.988   1_554  S
Co152       O521   2.068   1_545  S
Co153       O499   2.028   1_556  S
Co153       O328   1.962       .  S
Co153       O699   1.961       .  S
Co153       O155   2.045   1_556  S
Co154       O503   1.999       .  S
Co154       O695   1.971   1_554  S
Co154       O332   1.909   1_554  S
Co154       O155   2.028       .  S
O155       Co518   2.007       .  S
C160        C161   1.337       .  D
C160        H162   1.095       .  S
C161        H163   1.095       .  S
C164        C165   1.339       .  D
C164        H166   1.080       .  S
C165        H167   1.080       .  S
C168        C169   1.340       .  D
C168        H170   1.086       .  S
C169        H171   1.086       .  S
C172        C173   1.344       .  D
C172        H174   1.085       .  S
C173        H175   1.085       .  S
C176        C177   1.322       .  D
C176        H178   1.094       .  S
C177        H179   1.094       .  S
C180        C181   1.336       .  D
C180        H182   1.087       .  S
C181        H183   1.087       .  S
C184        N185   1.363       .  A
C184        N189   1.359       .  A
C184        C363   1.481       .  S
N185        C186   1.358       .  A
C186        N187   1.363       .  A
C186        C322   1.472       .  S
N187        C188   1.359       .  A
C188        N189   1.358       .  A
C188        C283   1.474       .  S
C190        N191   1.365       .  A
C190        N195   1.359       .  A
C190        C364   1.477       .  S
N191        C192   1.361       .  A
C192        N193   1.350       .  A
C192        C264   1.449       .  S
N193        C194   1.347       .  A
C194        N195   1.355       .  A
C194        C341   1.453       .  S
C196        N197   1.365       .  A
C196        N201   1.363       .  A
C196        C359   1.486       .  S
N197        C198   1.360       .  A
C198        N199   1.360       .  A
C198        C312   1.475       .  S
N199        C200   1.358       .  A
C200        N201   1.359       .  A
C200        C339   1.472       .  S
C202        N203   1.368       .  A
C202        N207   1.364       .  A
C202        C360   1.481       .  S
N203        C204   1.362       .  A
C204        N205   1.347       .  A
C204        C325   1.454       .  S
N205        C206   1.346       .  A
C206        N207   1.356       .  A
C206        C293   1.462       .  S
C208        N209   1.358       .  A
C208        N213   1.374       .  A
C208        C355   1.494       .  S
N209        C210   1.354       .  A
C210        N211   1.351       .  A
C210        C281   1.457       .  S
N211        C212   1.355       .  A
C212        N213   1.372       .  A
C212        C296   1.478       .  S
C214        N215   1.381       .  A
C214        N219   1.365       .  A
C214        C356   1.494       .  S
N215        C216   1.372       .  A
C216        N217   1.344       .  A
C216        C267   1.479       .  S
N217        C218   1.339       .  A
C218        N219   1.355       .  A
C218        C310   1.449       .  S
C220        N221   1.362       .  A
C220        N225   1.359       .  A
C220        C351   1.475       .  S
N221        C222   1.356       .  A
C222        N223   1.355       .  A
C222        C313   1.457       .  S
N223        C224   1.353       .  A
C224        N225   1.358       .  A
C224        C340   1.460       .  S
C226        N227   1.358       .  A
C226        N231   1.362       .  A
C226        C352   1.471       .  S
N227        C228   1.354       .  A
C228        N229   1.360       .  A
C228        C294   1.470       .  S
N229        C230   1.359       .  A
C230        N231   1.358       .  A
C230        C324   1.464       .  S
C232        N233   1.352       .  A
C232        N237   1.374       .  A
C232        C347   1.473       .  S
N233        C234   1.348       .  A
C234        N235   1.335       .  A
C234        C295   1.431       .  S
N235        C236   1.340       .  A
C236        N237   1.369       .  A
C236        C282   1.459       .  S
C238        N239   1.348       .  A
C238        N243   1.371       .  A
C238        C348   1.473       .  S
N239        C240   1.346       .  A
C240        N241   1.353       .  A
C240        C266   1.443       .  S
N241        C242   1.355       .  A
C242        N243   1.368       .  A
C242        C311   1.472       .  S
C244        N245   1.365       .  A
C244        N249   1.361       .  A
C244        C343   1.462       .  S
N245        C246   1.356       .  A
C246        N247   1.344       .  A
C246        C265   1.455       .  S
N247        C248   1.344       .  A
C248        N249   1.354       .  A
C248        C342   1.451       .  S
C250        N251   1.357       .  A
C250        N255   1.359       .  A
C250        C344   1.465       .  S
N251        C252   1.346       .  A
C252        N253   1.356       .  A
C252        C323   1.449       .  S
N253        C254   1.357       .  A
C254        N255   1.357       .  A
C254        C284   1.463       .  S
O256        C264   1.284       .  A
O257        C265   1.274       .  A
O258        C266   1.262       .  A
O259        C267   1.259       .  A
O260        C266   1.279       .  A
O261        C267   1.266       .  A
O262        C265   1.264       .  A
O263        C264   1.270       .  A
O268        C281   1.294       .  A
O268       Co276   2.094       .  S
O269        C282   1.277       .  A
O269       Co277   2.000       .  S
O270        C283   1.251       .  A
O270       Co278   1.966       .  S
O271        C284   1.270       .  A
O271       Co279   1.977       .  S
O272        C284   1.278       .  A
O272       Co277   2.027       .  S
O273        C283   1.265       .  A
O273       Co276   2.034       .  S
O274        C281   1.268       .  A
O274       Co279   1.901       .  S
O275        C282   1.256       .  A
O275       Co278   1.968       .  S
Co276       O280   1.976       .  S
Co277       O280   1.997       .  S
Co278       O280   2.045       .  S
Co279       O280   2.017       .  S
O285        C293   1.260       .  A
O285       Co305   1.988       .  S
O286        C294   1.281       .  A
O286       Co306   2.046       .  S
O287        C295   1.253       .  A
O287       Co307   1.943       .  S
O288       C1028   1.264       .  A
O288       Co308   1.899       .  S
O289        C295   1.269       .  A
O289       Co306   1.983       .  S
O290        C296   1.293       .  A
O290       Co305   2.108       .  S
O291        C294   1.271       .  A
O291       Co308   1.973       .  S
O292       C1025   1.256       .  A
O292       Co307   1.984       .  S
C293       O1024   1.258   1_455  A
C296       O1020   1.270   1_455  A
O297        C310   1.262       .  A
O298        C311   1.251       .  A
O299       C1044   1.277       .  A
O300        C313   1.255       .  A
O301        C313   1.248       .  A
O302        C312   1.266       .  A
O303       C1042   1.296       .  A
O304        C311   1.280       .  A
Co305      O1041   1.970   1_455  S
Co306       O309   2.013       .  S
Co307       O309   2.032       .  S
Co308       O309   2.008       .  S
O309      Co1037   1.968       .  S
C310       O1035   1.295       .  A
C312       O1031   1.277       .  A
O314        C322   1.261       .  A
O314       Co334   1.969       .  S
O315        C323   1.268       .  A
O315       Co335   2.004       .  S
O316        C324   1.277       .  A
O316       Co702   1.932   1_545  S
O317        C325   1.299       .  A
O317       Co337   2.104       .  S
O318        C324   1.284       .  A
O318       Co335   2.028       .  S
O319        C325   1.266       .  A
O319       Co334   1.867       .  S
O320        C323   1.241       .  A
O320       Co703   1.933   1_545  S
O321        C322   1.276       .  A
O321       Co336   2.040       .  S
O326        C339   1.295       .  A
O327        C340   1.279   1_554  A
O328        C341   1.249       .  A
O329        C342   1.258       .  A
O329       Co520   1.970   1_545  S
O330        C342   1.267       .  A
O331        C341   1.265       .  A
O332        C339   1.263       .  A
O333        C340   1.258       .  A
O333       Co519   1.950   1_546  S
Co334       O338   1.974       .  S
Co335       O704   2.183   1_545  S
Co336       O682   2.047       .  S
Co336       O516   1.971       .  S
Co336       O338   2.059       .  S
Co337       O686   1.915       .  S
Co337       O512   1.970       .  S
Co337       O338   2.060       .  S
O338       Co701   2.050       .  S
C343        C344   1.342       .  D
C343        H345   1.088       .  S
C344        H346   1.087       .  S
C347        C348   1.329       .  D
C347        H349   1.091       .  S
C348        H350   1.090       .  S
C351        C352   1.341       .  D
C351        H353   1.089       .  S
C352        H354   1.089       .  S
C355        C356   1.342       .  D
C355        H357   1.087       .  S
C356        H358   1.087       .  S
C359        C360   1.348       .  D
C359        H361   1.077       .  S
C360        H362   1.077       .  S
C363        C364   1.346       .  D
C363        H365   1.071       .  S
C364        H366   1.071       .  S
C367        N368   1.359       .  A
C367        N372   1.364       .  A
C367        C546   1.474       .  S
N368        C369   1.352       .  A
C369        N370   1.353       .  A
C369        C505   1.456       .  S
N370        C371   1.354       .  A
C371        N372   1.359       .  A
C371        C466   1.458       .  S
C373        N374   1.359       .  A
C373        N378   1.364       .  A
C373        C547   1.473       .  S
N374        C375   1.352       .  A
C375        N376   1.356       .  A
C375        C447   1.458       .  S
N376        C377   1.357       .  A
C377        N378   1.359       .  A
C377        C524   1.469       .  S
C379        N380   1.366       .  A
C379        N384   1.347       .  A
C379        C542   1.458       .  S
N380        C381   1.359       .  A
C381        N382   1.356       .  A
C381        C495   1.468       .  S
N382        C383   1.355       .  A
C383        N384   1.344       .  A
C383        C522   1.440       .  S
C385        N386   1.367       .  A
C385        N390   1.351       .  A
C385        C543   1.462       .  S
N386        C387   1.358       .  A
C387        N388   1.363       .  A
C387        C508   1.473       .  S
N388        C389   1.360       .  A
C389        N390   1.350       .  A
C389        C476   1.467       .  S
C391        N392   1.351       .  A
C391        N396   1.371       .  A
C391        C538   1.480       .  S
N392        C393   1.348       .  A
C393        N394   1.360       .  A
C393        C464   1.463       .  S
N394        C395   1.365       .  A
C395        N396   1.370       .  A
C395        C479   1.486       .  S
C397        N398   1.371       .  A
C397        N402   1.358       .  A
C397        C539   1.485       .  S
N398        C399   1.365       .  A
C399        N400   1.361       .  A
C399        C450   1.473       .  S
N400        C401   1.355       .  A
C401        N402   1.354       .  A
C401        C493   1.469       .  S
C403        N404   1.344       .  A
C403        N408   1.368       .  A
C403        C534   1.463       .  S
N404        C405   1.344       .  A
C405        N406   1.360       .  A
C405        C496   1.444       .  S
N406        C407   1.361       .  A
C407        N408   1.366       .  A
C407        C523   1.480       .  S
C409        N410   1.371       .  A
C409        N414   1.348       .  A
C409        C535   1.467       .  S
N410        C411   1.364       .  A
C411        N412   1.359       .  A
C411        C477   1.478       .  S
N412        C413   1.355       .  A
C413        N414   1.347       .  A
C413        C507   1.448       .  S
C415        N416   1.376       .  A
C415        N420   1.370       .  A
C415        C530   1.498       .  S
N416        C417   1.369       .  A
C417        N418   1.348       .  A
C417        C478   1.482       .  S
N418        C419   1.348       .  A
C419        N420   1.361       .  A
C419        C465   1.472       .  S
C421        N422   1.367       .  A
C421        N426   1.360       .  A
C421        C531   1.498       .  S
N422        C423   1.369       .  A
C423        N424   1.366       .  A
C423        C449   1.490       .  S
N424        C425   1.364       .  A
C425        N426   1.361       .  A
C425        C494   1.485       .  S
C427        N428   1.363       .  A
C427        N432   1.360       .  A
C427        C526   1.468       .  S
N428        C429   1.355       .  A
C429        N430   1.361       .  A
C429        C448   1.471       .  S
N430        C431   1.360       .  A
C431        N432   1.356       .  A
C431        C525   1.471       .  S
C433        N434   1.362       .  A
C433        N438   1.361       .  A
C433        C527   1.470       .  S
N434        C435   1.353       .  A
C435        N436   1.354       .  A
C435        C506   1.460       .  S
N436        C437   1.356       .  A
C437        N438   1.358       .  A
C437        C467   1.466       .  S
O439        C447   1.266       .  A
O439       Co642   1.886       .  S
O440        C448   1.257       .  A
O440       Co643   1.961       .  S
O441        C449   1.273       .  A
O441       Co644   2.044       .  S
O442        C450   1.280       .  A
O442       Co645   2.032       .  S
O443        C449   1.261       .  A
O443       Co643   1.986       .  S
O444        C450   1.269       .  A
O444       Co642   1.978       .  S
O445        C448   1.273       .  A
O445       Co645   2.039       .  S
O446        C447   1.295       .  A
O446       Co644   2.105       .  S
O451        C464   1.292       .  A
O451       Co459   2.038       .  S
O452        C465   1.266       .  A
O452       Co460   1.995   1_554  S
O453        C466   1.273       .  A
O453       Co461   1.908   1_554  S
O454        C467   1.260       .  A
O454       Co462   2.007   1_554  S
O455        C467   1.265       .  A
O455       Co460   2.009   1_554  S
O456        C466   1.293       .  A
O456       Co459   2.056       .  S
O457        C464   1.276       .  A
O457       Co462   1.930   1_554  S
O458        C465   1.260       .  A
O458       Co461   2.011   1_554  S
Co459       O622   1.977   1_554  S
Co459       O627   1.978   1_554  S
Co459       O463   2.239   1_554  S
Co460       O623   1.973       .  S
Co460       O626   1.985       .  S
Co460       O463   2.066       .  S
Co461       O624   2.012       .  S
Co461       O629   2.001       .  S
Co461       O463   1.938       .  S
Co462       O625   1.997       .  S
Co462       O628   2.010       .  S
Co462       O463   1.952       .  S
O468        C476   1.259       .  A
O468       Co488   2.010   1_554  S
O469        C477   1.280       .  A
O469       Co489   2.032   1_554  S
O470        C478   1.263       .  A
O470       Co490   1.989       .  S
O471       C1211   1.270       .  A
O471       Co491   1.903       .  S
O472        C478   1.277       .  A
O472       Co489   2.021   1_554  S
O473        C479   1.298       .  A
O473       Co488   2.111   1_554  S
O474        C477   1.272       .  A
O474       Co491   1.989       .  S
O475       C1208   1.259       .  A
O475       Co490   1.967       .  S
C476       O1207   1.258       .  A
C479       O1203   1.269   1_455  A
O480        C493   1.279       .  A
O480       Co671   1.939       .  S
O481        C494   1.257       .  A
O481       Co672   1.969       .  S
O482       C1227   1.279       .  A
O482       Co673   2.040       .  S
O483        C496   1.257       .  A
O483       Co674   2.013       .  S
O484        C496   1.247       .  A
O484       Co672   1.947       .  S
O485        C495   1.267       .  A
O485       Co671   1.965       .  S
O486       C1225   1.288       .  A
O486       Co674   2.107       .  S
O487        C494   1.273       .  A
O487       Co673   2.053       .  S
Co488       O663   1.886       .  S
Co488       O668   1.972       .  S
Co488      O1224   2.000   1_456  S
Co489       O664   1.966       .  S
Co489       O667   1.954       .  S
Co489       O492   1.996   1_556  S
Co490       O665   2.039   1_554  S
Co490       O670   2.053   1_554  S
Co490       O492   2.046       .  S
Co491       O666   2.025   1_554  S
Co491       O669   2.130   1_554  S
Co491       O492   2.040       .  S
O492      Co1220   2.008   1_554  S
C493       O1218   1.285       .  A
C495       O1214   1.279       .  A
O497        C505   1.270       .  A
O497       Co517   2.006       .  S
O498        C506   1.251       .  A
O498       Co518   1.973       .  S
O499        C507   1.270       .  A
O500        C508   1.262       .  A
O500       Co520   2.027   1_554  S
O501        C507   1.254       .  A
O501       Co518   1.948       .  S
O502        C508   1.249       .  A
O502       Co517   1.963       .  S
O503        C506   1.255       .  A
O504        C505   1.263       .  A
O504       Co519   1.974       .  S
O509        C522   1.273       .  A
O509       Co700   2.002       .  S
O510        C523   1.277       .  A
O510       Co701   2.046       .  S
O511        C524   1.275       .  A
O511       Co702   2.027       .  S
O512        C525   1.268       .  A
O513        C525   1.280       .  A
O513       Co701   2.036       .  S
O514        C524   1.268       .  A
O514       Co700   1.985       .  S
O515        C522   1.253       .  A
O515       Co703   1.948       .  S
O516        C523   1.259       .  A
Co517       O692   1.927   1_554  S
Co517       O697   2.038   1_554  S
Co517       O521   1.946       .  S
Co518       O693   2.050   1_554  S
Co518       O696   2.031   1_554  S
Co519       O694   1.957   1_554  S
Co519       O521   2.113       .  S
Co520       O698   2.021       .  S
Co520       O521   2.199   1_556  S
C526        C527   1.340       .  D
C526        H528   1.098       .  S
C527        H529   1.098       .  S
C530        C531   1.351       .  D
C530        H532   1.082       .  S
C531        H533   1.082       .  S
C534        C535   1.322       .  D
C534        H536   1.100       .  S
C535        H537   1.101       .  S
C538        C539   1.337       .  D
C538        H540   1.084       .  S
C539        H541   1.083       .  S
C542        C543   1.325       .  D
C542        H544   1.101       .  S
C543        H545   1.101       .  S
C546        C547   1.352       .  D
C546        H548   1.069       .  S
C547        H549   1.069       .  S
C550        N551   1.368       .  A
C550        N555   1.363       .  A
C550        C729   1.480       .  S
N551        C552   1.358       .  A
C552        N553   1.360       .  A
C552        C688   1.477       .  S
N553        C554   1.354       .  A
C554        N555   1.356       .  A
C554        C649   1.468       .  S
C556        N557   1.372       .  A
C556        N561   1.363       .  A
C556        C730   1.477       .  S
N557        C558   1.363       .  A
C558        N559   1.349       .  A
C558        C630   1.468       .  S
N559        C560   1.347       .  A
C560        N561   1.352       .  A
C560        C707   1.453       .  S
C562        N563   1.372       .  A
C562        N567   1.348       .  A
C562        C725   1.475       .  S
N563        C564   1.369       .  A
C564        N565   1.358       .  A
C564        C678   1.472       .  S
N565        C566   1.352       .  A
C566        N567   1.347       .  A
C566        C705   1.446       .  S
C568        N569   1.375       .  A
C568        N573   1.354       .  A
C568        C726   1.475       .  S
N569        C570   1.367       .  A
C570        N571   1.343       .  A
C570        C691   1.457       .  S
N571        C572   1.333       .  A
C572        N573   1.350       .  A
C572        C659   1.437       .  S
C574        N575   1.359       .  A
C574        N579   1.367       .  A
C574        C721   1.483       .  S
N575        C576   1.356       .  A
C576        N577   1.346       .  A
C576        C647   1.463       .  S
N577        C578   1.352       .  A
C578        N579   1.363       .  A
C578        C662   1.446       .  S
C580        N581   1.378       .  A
C580        N585   1.364       .  A
C580        C722   1.484       .  S
N581        C582   1.366       .  A
C582        N583   1.346       .  A
C582        C633   1.472       .  S
N583        C584   1.340       .  A
C584        N585   1.353       .  A
C584        C676   1.450       .  S
C586        N587   1.351       .  A
C586        N591   1.364       .  A
C586        C717   1.470       .  S
N587        C588   1.350       .  A
C588        N589   1.361       .  A
C588        C679   1.456       .  S
N589        C590   1.362       .  A
C590        N591   1.363       .  A
C590        C706   1.477       .  S
C592        N593   1.365       .  A
C592        N597   1.357       .  A
C592        C718   1.473       .  S
N593        C594   1.358       .  A
C594        N595   1.362       .  A
C594        C660   1.473       .  S
N595        C596   1.358       .  A
C596        N597   1.356       .  A
C596        C690   1.469       .  S
C598        N599   1.364       .  A
C598        N603   1.369       .  A
C598        C713   1.477       .  S
N599        C600   1.355       .  A
C600        N601   1.343       .  A
C600        C661   1.454       .  S
N601        C602   1.346       .  A
C602        N603   1.361       .  A
C602        C648   1.463       .  S
C604        N605   1.354       .  A
C604        N609   1.361       .  A
C604        C714   1.478       .  S
N605        C606   1.353       .  A
C606        N607   1.365       .  A
C606        C632   1.468       .  S
N607        C608   1.365       .  A
C608        N609   1.363       .  A
C608        C677   1.482       .  S
C610        N611   1.360       .  A
C610        N615   1.357       .  A
C610        C709   1.461       .  S
N611        C612   1.350       .  A
C612        N613   1.358       .  A
C612        C631   1.460       .  S
N613        C614   1.358       .  A
C614        N615   1.354       .  A
C614        C708   1.463       .  S
C616        N617   1.352       .  A
C616        N621   1.355       .  A
C616        C710   1.456       .  S
N617        C618   1.346       .  A
C618        N619   1.352       .  A
C618        C689   1.418       .  S
N619        C620   1.346       .  A
C620        N621   1.354       .  A
C620        C650   1.451       .  S
O622        C630   1.251       .  A
O623        C631   1.262       .  A
O624        C632   1.267       .  A
O625        C633   1.250       .  A
O626        C632   1.268       .  A
O627        C633   1.256       .  A
O628        C631   1.269       .  A
O629        C630   1.250       .  A
O634        C647   1.263       .  A
O634       Co642   2.020       .  S
O635        C648   1.277       .  A
O635       Co643   2.001       .  S
O636        C649   1.269       .  A
O636       Co644   1.904       .  S
O637        C650   1.252       .  A
O637       Co645   1.939       .  S
O638        C650   1.275       .  A
O638       Co643   2.039       .  S
O639        C649   1.294       .  A
O639       Co642   2.104       .  S
O640        C647   1.251       .  A
O640       Co645   1.970       .  S
O641        C648   1.266       .  A
O641       Co644   1.980       .  S
Co642       O646   1.999       .  S
Co643       O646   2.026       .  S
Co644       O646   2.016       .  S
Co645       O646   2.030       .  S
O651        C659   1.278       .  A
O651       Co671   2.003       .  S
O652        C660   1.281       .  A
O652       Co672   2.036       .  S
O653        C661   1.262       .  A
O653       Co673   1.968       .  S
O654       C1394   1.266       .  A
O654       Co674   1.902       .  S
O655        C661   1.274       .  A
O655       Co672   1.998       .  S
O656        C662   1.262       .  A
O656       Co671   2.050       .  S
O657        C660   1.274       .  A
O657       Co674   1.980       .  S
O658       C1391   1.258       .  A
O658       Co673   1.977       .  S
C659       O1390   1.258       .  A
C662       O1386   1.227       .  A
O663        C676   1.260       .  A
O664        C677   1.257       .  A
O665       C1410   1.279       .  A
O666        C679   1.263       .  A
O667        C679   1.249       .  A
O668        C678   1.258       .  A
O669       C1408   1.299       .  A
O670        C677   1.276       .  A
Co671      O1407   1.976   1_455  S
Co672       O675   1.988       .  S
Co673       O675   2.053       .  S
Co674       O675   2.032       .  S
O675      Co1403   1.994       .  S
C676       O1401   1.288       .  A
C678       O1397   1.283       .  A
O680        C688   1.264       .  A
O680       Co700   2.001       .  S
O681        C689   1.254       .  A
O681       Co701   1.980       .  S
O682        C690   1.271       .  A
O683        C691   1.254       .  A
O683       Co703   1.971       .  S
O684        C690   1.250       .  A
O684       Co701   1.957       .  S
O685        C691   1.273       .  A
O685       Co700   1.996       .  S
O686        C689   1.235       .  A
O687        C688   1.266       .  A
O687       Co702   2.001       .  S
O692        C705   1.274       .  A
O693        C706   1.276       .  A
O694        C707   1.241       .  A
O695        C708   1.273       .  A
O696        C708   1.283       .  A
O697        C707   1.250       .  A
O698        C705   1.286       .  A
O699        C706   1.255       .  A
Co700       O704   2.088       .  S
Co702       O704   1.964       .  S
Co703       O704   1.997       .  S
C709        C710   1.341       .  D
C709        H711   1.079       .  S
C710        H712   1.078       .  S
C713        C714   1.350       .  D
C713        H715   1.088       .  S
C714        H716   1.088       .  S
C717        C718   1.336       .  D
C717        H719   1.089       .  S
C718        H720   1.089       .  S
C721        C722   1.341       .  D
C721        H723   1.084       .  S
C722        H724   1.085       .  S
C725        C726   1.328       .  D
C725        H727   1.096       .  S
C726        H728   1.095       .  S
C729        C730   1.344       .  D
C729        H731   1.074       .  S
C730        H732   1.074       .  S
C733        N734   1.360       .  A
C733        N738   1.361       .  A
C733        C912   1.476       .  S
N734        C735   1.356       .  A
C735        N736   1.367       .  A
C735        C871   1.481       .  S
N736        C737   1.366       .  A
C737        N738   1.358       .  A
C737        C832   1.483       .  S
C739        N740   1.358       .  A
C739        N744   1.363       .  A
C739        C913   1.478       .  S
N740        C741   1.353       .  A
C741        N742   1.364       .  A
C741        C813   1.469       .  S
N742        C743   1.362       .  A
C743        N744   1.360       .  A
C743        C890   1.481       .  S
C745        N746   1.362       .  A
C745        N750   1.364       .  A
C745        C908   1.484       .  S
N746        C747   1.356       .  A
C747        N748   1.365       .  A
C747        C861   1.479       .  S
N748        C749   1.364       .  A
C749        N750   1.362       .  A
C749        C888   1.484       .  S
C751        N752   1.366       .  A
C751        N756   1.368       .  A
C751        C909   1.480       .  S
N752        C753   1.358       .  A
C753        N754   1.338       .  A
C753        C874   1.438       .  S
N754        C755   1.340       .  A
C755        N756   1.360       .  A
C755        C842   1.457       .  S
C757        N758   1.354       .  A
C757        N762   1.372       .  A
C757        C904   1.487       .  S
N758        C759   1.352       .  A
C759        N760   1.356       .  A
C759        C830   1.465       .  S
N760        C761   1.361       .  A
C761        N762   1.371       .  A
C761        C845   1.481       .  S
C763        N764   1.380       .  A
C763        N768   1.364       .  A
C763        C905   1.490       .  S
N764        C765   1.368       .  A
C765        N766   1.338       .  A
C765        C816   1.462       .  S
N766        C767   1.335       .  A
C767        N768   1.354       .  A
C767        C859   1.440       .  S
C769        N770   1.368       .  A
C769        N774   1.353       .  A
C769        C900   1.471       .  S
N770        C771   1.363       .  A
C771        N772   1.363       .  A
C771        C862   1.482       .  S
N772        C773   1.363       .  A
C773        N774   1.349       .  A
C773        C889   1.467       .  S
C775        N776   1.364       .  A
C775        N780   1.379       .  A
C775        C901   1.471       .  S
N776        C777   1.350       .  A
C777        N778   1.341       .  A
C777        C843   1.461       .  S
N778        C779   1.350       .  A
C779        N780   1.362       .  A
C779        C873   1.478       .  S
C781        N782   1.372       .  A
C781        N786   1.371       .  A
C781        C896   1.497       .  S
N782        C783   1.365       .  A
C783        N784   1.341       .  A
C783        C844   1.465       .  S
N784        C785   1.342       .  A
C785        N786   1.363       .  A
C785        C831   1.459       .  S
C787        N788   1.364       .  A
C787        N792   1.361       .  A
C787        C897   1.495       .  S
N788        C789   1.367       .  A
C789        N790   1.361       .  A
C789        C815   1.478       .  S
N790        C791   1.359       .  A
C791        N792   1.361       .  A
C791        C860   1.478       .  S
C793        N794   1.361       .  A
C793        N798   1.355       .  A
C793        C892   1.474       .  S
N794        C795   1.356       .  A
C795        N796   1.363       .  A
C795        C814   1.468       .  S
N796        C797   1.361       .  A
C797        N798   1.357       .  A
C797        C891   1.468       .  S
C799        N800   1.364       .  A
C799        N804   1.355       .  A
C799        C893   1.470       .  S
N800        C801   1.360       .  A
C801        N802   1.354       .  A
C801        C872   1.460       .  S
N802        C803   1.353       .  A
C803        N804   1.352       .  A
C803        C833   1.450       .  S
O805        C813   1.264       .  A
O805      Co1008   1.961       .  S
O806        C814   1.248       .  A
O806      Co1009   1.956       .  S
O807        C815   1.278       .  A
O807      Co1010   2.049       .  S
O808        C816   1.295       .  A
O808      Co1011   2.116       .  S
O809        C815   1.257       .  A
O809      Co1009   1.966       .  S
O810        C816   1.264       .  A
O810      Co1008   1.870       .  S
O811        C814   1.264       .  A
O811      Co1011   2.030       .  S
O812        C813   1.279       .  A
O812      Co1010   2.043       .  S
O817        C830   1.253       .  A
O817       Co825   1.954       .  S
O818        C831   1.260       .  A
O818       Co826   1.870   1_554  S
O819        C832   1.264       .  A
O819       Co827   2.024   1_554  S
O820        C833   1.276       .  A
O820       Co828   2.033   1_554  S
O821        C833   1.259       .  A
O821       Co826   1.958   1_554  S
O822        C832   1.263       .  A
O822       Co825   1.990       .  S
O823        C830   1.270   1_556  A
O823       Co828   2.041       .  S
O824        C831   1.295       .  A
O824       Co827   2.125   1_554  S
Co825       O988   1.963   1_554  S
Co825       O993   2.030   1_554  S
Co825       O829   1.983   1_554  S
Co826       O989   2.012       .  S
Co826       O992   2.103       .  S
Co826       O829   1.967       .  S
Co827       O990   1.909       .  S
Co827       O995   1.992       .  S
Co827       O829   2.028       .  S
Co828       O991   1.964       .  S
Co828       O994   1.974       .  S
Co828       O829   2.075       .  S
O834        C842   1.261       .  A
O834       Co854   1.978   1_554  S
O835        C843   1.281       .  A
O835       Co855   2.013   1_554  S
O836        C844   1.256       .  A
O836       Co856   1.967       .  S
O837       Co857   1.899   1_455  S
O838        C844   1.277       .  A
O838       Co855   2.019   1_554  S
O839        C845   1.296       .  A
O839       Co854   2.128   1_554  S
O840        C843   1.271       .  A
O840       Co857   1.975       .  S
O841       Co856   1.967   1_455  S
O846        C859   1.265       .  A
O846      Co1037   1.860       .  S
O847        C860   1.260       .  A
O847      Co1038   1.968       .  S
O848      Co1039   2.052   1_455  S
O849        C862   1.267       .  A
O849      Co1040   2.036       .  S
O850        C862   1.255       .  A
O850      Co1038   1.974       .  S
O851        C861   1.270       .  A
O851      Co1037   1.981       .  S
O852      Co1040   2.108       .  S
O853        C860   1.277       .  A
O853      Co1039   2.047       .  S
Co854      O1029   1.862       .  S
Co854      O1034   1.983       .  S
Co855      O1030   1.961       .  S
Co855      O1033   1.971       .  S
Co855       O858   1.985   1_556  S
Co856      O1031   2.034   1_654  S
Co856      O1036   2.056   1_554  S
Co856       O858   2.054       .  S
Co857      O1032   1.998   1_554  S
Co857      O1035   2.122   1_654  S
Co857       O858   2.023       .  S
O863        C871   1.271       .  A
O863       Co883   1.987       .  S
O864        C872   1.261       .  A
O864       Co884   2.014   1_554  S
O865        C873   1.263       .  A
O865      Co1251   2.040   1_545  S
O866        C874   1.294       .  A
O866       Co886   2.078       .  S
O867        C873   1.251       .  A
O867       Co884   1.938   1_554  S
O868        C874   1.268       .  A
O868       Co883   1.862       .  S
O869        C872   1.248       .  A
O869      Co1252   1.961   1_545  S
O870        C871   1.275       .  A
O870       Co885   2.037   1_554  S
O875        C888   1.295       .  A
O875      Co1066   2.107       .  S
O876        C889   1.276       .  A
O876      Co1067   2.025       .  S
O877        C890   1.258       .  A
O877      Co1068   1.985       .  S
O878        C891   1.258       .  A
O878      Co1435   1.952   1_545  S
O879        C891   1.279       .  A
O879      Co1067   2.052       .  S
O880        C890   1.265       .  A
O880      Co1066   2.028       .  S
O881        C888   1.266       .  A
O881      Co1069   1.924       .  S
O882        C889   1.273       .  A
O882      Co1434   1.974   1_545  S
Co883      O1058   2.069   1_554  S
Co883      O1063   1.983   1_554  S
Co883       O887   1.948       .  S
Co884      O1059   2.001       .  S
Co884      O1062   1.943       .  S
Co884      O1253   2.063   1_546  S
Co885      O1231   2.046   1_556  S
Co885      O1060   1.963       .  S
Co885      O1431   1.945       .  S
Co885       O887   2.038   1_556  S
Co886      O1235   1.926       .  S
Co886      O1427   1.963   1_554  S
Co886      O1064   1.919   1_554  S
Co886       O887   2.047       .  S
O887      Co1250   2.055       .  S
C892        C893   1.338       .  D
C892        H894   1.089       .  S
C893        H895   1.089       .  S
C896        C897   1.353       .  D
C896        H898   1.082       .  S
C897        H899   1.082       .  S
C900        C901   1.334       .  D
C900        H902   1.085       .  S
C901        H903   1.085       .  S
C904        C905   1.340       .  D
C904        H906   1.085       .  S
C905        H907   1.085       .  S
C908        C909   1.350       .  D
C908        H910   1.084       .  S
C909        H911   1.083       .  S
C912        C913   1.352       .  D
C912        H914   1.068       .  S
C913        H915   1.068       .  S
C916        N917   1.359       .  A
C916        N921   1.353       .  A
C916       C1095   1.460       .  S
N917        C918   1.352       .  A
C918        N919   1.361       .  A
C918       C1054   1.456       .  S
N919        C920   1.358       .  A
C920        N921   1.354       .  A
C920       C1015   1.463       .  S
C922        N923   1.368       .  A
C922        N927   1.360       .  A
C922       C1096   1.457       .  S
N923        C924   1.353       .  A
C924        N925   1.345       .  A
C924        C996   1.451       .  S
N925        C926   1.336       .  A
C926        N927   1.351       .  A
C926       C1073   1.443       .  S
C928        N929   1.369       .  A
C928        N933   1.354       .  A
C928       C1091   1.479       .  S
N929        C930   1.363       .  A
C930        N931   1.360       .  A
C930       C1044   1.479       .  S
N931        C932   1.359       .  A
C932        N933   1.350       .  A
C932       C1071   1.457       .  S
C934        N935   1.375       .  A
C934        N939   1.359       .  A
C934       C1092   1.477       .  S
N935        C936   1.367       .  A
C936        N937   1.345       .  A
C936       C1057   1.464       .  S
N937        C938   1.343       .  A
C938        N939   1.351       .  A
C938       C1025   1.452       .  S
C940        N941   1.364       .  A
C940        N945   1.369       .  A
C940       C1087   1.492       .  S
N941        C942   1.360       .  A
C942        N943   1.349       .  A
C942       C1013   1.461       .  S
N943        C944   1.351       .  A
C944        N945   1.364       .  A
C944       C1028   1.462       .  S
C946        N947   1.374       .  A
C946        N951   1.368       .  A
C946       C1088   1.491       .  S
N947        C948   1.367       .  A
C948        N949   1.339       .  A
C948        C999   1.465       .  S
N949        C950   1.339       .  A
C950        N951   1.358       .  A
C950       C1042   1.449       .  S
C952        N953   1.351       .  A
C952        N957   1.367       .  A
C952       C1083   1.467       .  S
N953        C954   1.351       .  A
C954        N955   1.358       .  A
C954       C1045   1.450       .  S
N955        C956   1.356       .  A
C956        N957   1.360       .  A
C956       C1072   1.471       .  S
C958        N959   1.370       .  A
C958        N963   1.353       .  A
C958       C1084   1.466       .  S
N959        C960   1.362       .  A
C960        N961   1.359       .  A
C960       C1026   1.478       .  S
N961        C962   1.356       .  A
C962        N963   1.348       .  A
C962       C1056   1.455       .  S
C964        N965   1.370       .  A
C964        N969   1.363       .  A
C964       C1079   1.484       .  S
N965        C966   1.364       .  A
C966        N967   1.340       .  A
C966       C1027   1.454       .  S
N967        C968   1.337       .  A
C968        N969   1.359       .  A
C968       C1014   1.450       .  S
C970        N971   1.364       .  A
C970        N975   1.358       .  A
C970       C1080   1.485       .  S
N971        C972   1.362       .  A
C972        N973   1.365       .  A
C972        C998   1.478       .  S
N973        C974   1.363       .  A
C974        N975   1.359       .  A
C974       C1043   1.480       .  S
C976        N977   1.366       .  A
C976        N981   1.368       .  A
C976       C1075   1.476       .  S
N977        C978   1.355       .  A
C978        N979   1.349       .  A
C978        C997   1.472       .  S
N979        C980   1.357       .  A
C980        N981   1.359       .  A
C980       C1074   1.465       .  S
C982        N983   1.362       .  A
C982        N987   1.365       .  A
C982       C1076   1.475       .  S
N983        C984   1.355       .  A
C984        N985   1.355       .  A
C984       C1055   1.461       .  S
N985        C986   1.355       .  A
C986        N987   1.360       .  A
C986       C1016   1.471       .  S
O988        C996   1.273       .  A
O989        C997   1.264       .  A
O990        C998   1.269       .  A
O991        C999   1.258       .  A
O992        C998   1.299       .  A
O993        C999   1.283       .  A
O994        C997   1.254       .  A
O995        C996   1.276       .  A
O1000      C1013   1.294       .  A
O1000     Co1008   2.101       .  S
O1001      C1014   1.274       .  A
O1001     Co1009   2.003       .  S
O1002      C1015   1.251       .  A
O1002     Co1010   1.962       .  S
O1003      C1016   1.268       .  A
O1003     Co1011   1.981       .  S
O1004      C1016   1.280       .  A
O1004     Co1009   2.038       .  S
O1005      C1015   1.263       .  A
O1005     Co1008   2.027       .  S
O1006      C1013   1.269       .  A
O1006     Co1011   1.900       .  S
O1007      C1014   1.253       .  A
O1007     Co1010   1.956       .  S
Co1008     O1012   1.975       .  S
Co1009     O1012   1.998       .  S
Co1010     O1012   2.034       .  S
Co1011     O1012   2.030       .  S
O1017      C1025   1.258       .  A
O1017     Co1037   1.978       .  S
O1018      C1026   1.281       .  A
O1018     Co1038   2.034       .  S
O1019      C1027   1.257       .  A
O1019     Co1039   1.969       .  S
O1020     Co1040   1.914       .  S
O1021      C1027   1.274       .  A
O1021     Co1038   1.994       .  S
O1022      C1028   1.292       .  A
O1022     Co1037   2.111       .  S
O1023      C1026   1.273       .  A
O1023     Co1040   1.987       .  S
O1024     Co1039   1.988       .  S
O1029      C1042   1.262       .  A
O1030      C1043   1.258       .  A
O1032      C1045   1.255       .  A
O1033      C1045   1.254       .  A
O1034      C1044   1.265       .  A
O1036      C1043   1.277       .  A
Co1038     O1041   2.003       .  S
Co1039     O1041   2.056       .  S
Co1040     O1041   2.026       .  S
O1046      C1054   1.260       .  A
O1046     Co1066   1.962       .  S
O1047      C1055   1.255       .  A
O1047     Co1067   1.967       .  S
O1048      C1056   1.261       .  A
O1048     Co1434   2.005   1_545  S
O1049      C1057   1.293       .  A
O1049     Co1069   2.109       .  S
O1050      C1056   1.255       .  A
O1050     Co1067   1.969       .  S
O1051      C1057   1.263       .  A
O1051     Co1066   1.886       .  S
O1052      C1055   1.267       .  A
O1052     Co1435   2.018   1_545  S
O1053      C1054   1.273       .  A
O1053     Co1068   2.024       .  S
O1058      C1071   1.272       .  A
O1059      C1072   1.272       .  A
O1060      C1073   1.251       .  A
O1061      C1074   1.296       .  A
O1061     Co1252   2.074   1_546  S
O1062      C1074   1.258       .  A
O1063      C1073   1.265       .  A
O1064      C1071   1.229       .  A
O1065      C1072   1.273       .  A
O1065     Co1251   2.012   1_546  S
Co1066     O1070   2.006       .  S
Co1067     O1436   2.026   1_545  S
Co1068     O1414   2.036       .  S
Co1068     O1248   1.963       .  S
Co1068     O1070   2.054       .  S
Co1069     O1418   2.002       .  S
Co1069     O1244   1.970       .  S
Co1069     O1070   2.035       .  S
O1070     Co1433   2.045       .  S
C1075      C1076   1.347       .  D
C1075      H1077   1.092       .  S
C1076      H1078   1.092       .  S
C1079      C1080   1.343       .  D
C1079      H1081   1.091       .  S
C1080      H1082   1.091       .  S
C1083      C1084   1.327       .  D
C1083      H1085   1.108       .  S
C1084      H1086   1.108       .  S
C1087      C1088   1.348       .  D
C1087      H1089   1.087       .  S
C1088      H1090   1.087       .  S
C1091      C1092   1.338       .  D
C1091      H1093   1.079       .  S
C1092      H1094   1.079       .  S
C1095      C1096   1.333       .  D
C1095      H1097   1.096       .  S
C1096      H1098   1.096       .  S
C1099      N1100   1.365       .  A
C1099      N1104   1.367       .  A
C1099      C1278   1.490       .  S
N1100      C1101   1.361       .  A
C1101      N1102   1.357       .  A
C1101      C1237   1.470       .  S
N1102      C1103   1.357       .  A
C1103      N1104   1.363       .  A
C1103      C1198   1.476       .  S
C1105      N1106   1.365       .  A
C1105      N1110   1.367       .  A
C1105      C1279   1.491       .  S
N1106      C1107   1.361       .  A
C1107      N1108   1.365       .  A
C1107      C1179   1.485       .  S
N1108      C1109   1.364       .  A
C1109      N1110   1.363       .  A
C1109      C1256   1.490       .  S
C1111      N1112   1.369       .  A
C1111      N1116   1.348       .  A
C1111      C1274   1.464       .  S
N1112      C1113   1.364       .  A
C1113      N1114   1.360       .  A
C1113      C1227   1.472       .  S
N1114      C1115   1.356       .  A
C1115      N1116   1.346       .  A
C1115      C1254   1.455       .  S
C1117      N1118   1.368       .  A
C1117      N1122   1.349       .  A
C1117      C1275   1.468       .  S
N1118      C1119   1.362       .  A
C1119      N1120   1.359       .  A
C1119      C1240   1.468       .  S
N1120      C1121   1.356       .  A
C1121      N1122   1.349       .  A
C1121      C1208   1.454       .  S
C1123      N1124   1.361       .  A
C1123      N1128   1.366       .  A
C1123      C1270   1.482       .  S
N1124      C1125   1.357       .  A
C1125      N1126   1.352       .  A
C1125      C1196   1.465       .  S
N1126      C1127   1.355       .  A
C1127      N1128   1.363       .  A
C1127      C1211   1.462       .  S
C1129      N1130   1.371       .  A
C1129      N1134   1.369       .  A
C1129      C1271   1.485       .  S
N1130      C1131   1.359       .  A
C1131      N1132   1.341       .  A
C1131      C1182   1.449       .  S
N1132      C1133   1.337       .  A
C1133      N1134   1.360       .  A
C1133      C1225   1.452       .  S
C1135      N1136   1.344       .  A
C1135      N1140   1.367       .  A
C1135      C1266   1.462       .  S
N1136      C1137   1.340       .  A
C1137      N1138   1.362       .  A
C1137      C1228   1.439       .  S
N1138      C1139   1.361       .  A
C1139      N1140   1.369       .  A
C1139      C1255   1.488       .  S
C1141      N1142   1.365       .  A
C1141      N1146   1.355       .  A
C1141      C1267   1.474       .  S
N1142      C1143   1.357       .  A
C1143      N1144   1.357       .  A
C1143      C1209   1.466       .  S
N1144      C1145   1.355       .  A
C1145      N1146   1.356       .  A
C1145      C1239   1.460       .  S
C1147      N1148   1.375       .  A
C1147      N1152   1.369       .  A
C1147      C1262   1.498       .  S
N1148      C1149   1.369       .  A
C1149      N1150   1.348       .  A
C1149      C1210   1.480       .  S
N1150      C1151   1.347       .  A
C1151      N1152   1.360       .  A
C1151      C1197   1.472       .  S
C1153      N1154   1.364       .  A
C1153      N1158   1.360       .  A
C1153      C1263   1.499       .  S
N1154      C1155   1.367       .  A
C1155      N1156   1.362       .  A
C1155      C1181   1.475       .  S
N1156      C1157   1.357       .  A
C1157      N1158   1.363       .  A
C1157      C1226   1.479       .  S
C1159      N1160   1.368       .  A
C1159      N1164   1.350       .  A
C1159      C1258   1.468       .  S
N1160      C1161   1.363       .  A
C1161      N1162   1.366       .  A
C1161      C1180   1.487       .  S
N1162      C1163   1.364       .  A
C1163      N1164   1.347       .  A
C1163      C1257   1.468       .  S
C1165      N1166   1.361       .  A
C1165      N1170   1.350       .  A
C1165      C1259   1.465       .  S
N1166      C1167   1.357       .  A
C1167      N1168   1.354       .  A
C1167      C1238   1.434       .  S
N1168      C1169   1.345       .  A
C1169      N1170   1.350       .  A
C1169      C1199   1.447       .  S
O1171      C1179   1.267       .  A
O1171     Co1374   1.975       .  S
O1172      C1180   1.257       .  A
O1172     Co1375   1.971       .  S
O1173      C1181   1.277       .  A
O1173     Co1376   2.037       .  S
O1174      C1182   1.297       .  A
O1174     Co1377   2.116       .  S
O1175      C1181   1.261       .  A
O1175     Co1375   1.969       .  S
O1176      C1182   1.261       .  A
O1176     Co1374   1.849       .  S
O1177      C1180   1.270       .  A
O1177     Co1377   2.040       .  S
O1178      C1179   1.281       .  A
O1178     Co1376   2.053       .  S
O1183      C1196   1.260       .  A
O1183     Co1191   2.012   1_554  S
O1184      C1197   1.278       .  A
O1184     Co1192   2.011   1_554  S
O1185      C1198   1.266       .  A
O1185     Co1193   1.905       .  S
O1186      C1199   1.250       .  A
O1186     Co1194   1.934       .  S
O1187      C1199   1.272       .  A
O1187     Co1192   2.034   1_554  S
O1188      C1198   1.298       .  A
O1188     Co1191   2.119   1_554  S
O1189      C1196   1.251       .  A
O1189     Co1194   1.979       .  S
O1190      C1197   1.270       .  A
O1190     Co1193   1.990       .  S
Co1191     O1354   1.853       .  S
Co1191     O1359   1.988       .  S
Co1191     O1195   1.996       .  S
Co1192     O1355   1.962       .  S
Co1192     O1358   1.988       .  S
Co1192     O1195   2.038       .  S
Co1193     O1356   2.033   1_554  S
Co1193     O1361   2.116   1_554  S
Co1193     O1195   2.018   1_554  S
Co1194     O1357   2.045   1_554  S
Co1194     O1360   2.041   1_554  S
Co1194     O1195   2.036   1_554  S
O1200      C1208   1.264       .  A
O1200     Co1220   2.007   1_554  S
O1201      C1209   1.281       .  A
O1201     Co1221   2.031   1_554  S
O1202      C1210   1.264       .  A
O1202     Co1222   1.983       .  S
O1203     Co1223   1.916       .  S
O1204      C1210   1.280       .  A
O1204     Co1221   2.026   1_554  S
O1205      C1211   1.292       .  A
O1205     Co1220   2.096   1_554  S
O1206      C1209   1.269       .  A
O1206     Co1223   1.973       .  S
O1207     Co1222   1.979   1_455  S
O1212      C1225   1.265       .  A
O1212     Co1403   1.879       .  S
O1213      C1226   1.249       .  A
O1213     Co1404   1.958       .  S
O1214     Co1405   2.028   1_455  S
O1215      C1228   1.245       .  A
O1215     Co1406   1.973       .  S
O1216      C1228   1.246       .  A
O1216     Co1404   1.942       .  S
O1217      C1227   1.263       .  A
O1217     Co1403   1.977       .  S
O1218     Co1406   2.061   1_455  S
O1219      C1226   1.271       .  A
O1219     Co1405   2.055       .  S
Co1220     O1395   1.909       .  S
Co1220     O1400   1.979       .  S
Co1221     O1396   1.959       .  S
Co1221     O1399   1.974       .  S
Co1221     O1224   1.996   1_556  S
Co1222     O1397   2.054   1_654  S
Co1222     O1402   2.050   1_554  S
Co1222     O1224   2.072       .  S
Co1223     O1398   2.033   1_554  S
Co1223     O1401   2.096   1_654  S
Co1223     O1224   2.042       .  S
O1229      C1237   1.295       .  A
O1229     Co1249   2.060       .  S
O1230      C1238   1.257       .  A
O1230     Co1250   1.990       .  S
O1231      C1239   1.274       .  A
O1232      C1240   1.269       .  A
O1232     Co1252   1.921       .  S
O1233      C1239   1.251       .  A
O1233     Co1250   1.954       .  S
O1234      C1240   1.290       .  A
O1234     Co1249   2.053       .  S
O1235      C1238   1.239       .  A
O1236      C1237   1.277       .  A
O1236     Co1251   1.918       .  S
O1241      C1254   1.253       .  A
O1241     Co1432   2.003       .  S
O1242      C1255   1.282       .  A
O1242     Co1433   2.068       .  S
O1243      C1256   1.268       .  A
O1243     Co1434   1.914       .  S
O1244      C1257   1.274       .  A
O1245      C1257   1.281       .  A
O1245     Co1433   2.036       .  S
O1246      C1256   1.302       .  A
O1246     Co1432   2.127       .  S
O1247      C1254   1.250       .  A
O1247     Co1435   1.961       .  S
O1248      C1255   1.256       .  A
Co1249     O1424   2.030   1_554  S
Co1249     O1429   1.985   1_554  S
Co1249     O1253   2.234       .  S
Co1250     O1425   2.038   1_554  S
Co1250     O1428   2.042   1_554  S
Co1251     O1426   1.984   1_554  S
Co1251     O1253   1.960       .  S
Co1252     O1430   1.976   1_554  S
Co1252     O1253   1.945       .  S
C1258      C1259   1.333       .  D
C1258      H1260   1.080       .  S
C1259      H1261   1.080       .  S
C1262      C1263   1.352       .  D
C1262      H1264   1.082       .  S
C1263      H1265   1.082       .  S
C1266      C1267   1.333       .  D
C1266      H1268   1.084       .  S
C1267      H1269   1.083       .  S
C1270      C1271   1.347       .  D
C1270      H1272   1.085       .  S
C1271      H1273   1.085       .  S
C1274      C1275   1.326       .  D
C1274      H1276   1.099       .  S
C1275      H1277   1.099       .  S
C1278      C1279   1.350       .  D
C1278      H1280   1.099       .  S
C1279      H1281   1.099       .  S
C1282      N1283   1.365       .  A
C1282      N1287   1.369       .  A
C1282      C1461   1.479       .  S
N1283      C1284   1.355       .  A
C1284      N1285   1.344       .  A
C1284      C1420   1.443       .  S
N1285      C1286   1.342       .  A
C1286      N1287   1.363       .  A
C1286      C1381   1.464       .  S
C1288      N1289   1.367       .  A
C1288      N1293   1.371       .  A
C1288      C1462   1.481       .  S
N1289      C1290   1.354       .  A
C1290      N1291   1.342       .  A
C1290      C1362   1.446       .  S
N1291      C1292   1.343       .  A
C1292      N1293   1.363       .  A
C1292      C1439   1.462       .  S
C1294      N1295   1.367       .  A
C1294      N1299   1.359       .  A
C1294      C1457   1.475       .  S
N1295      C1296   1.358       .  A
C1296      N1297   1.361       .  A
C1296      C1410   1.478       .  S
N1297      C1298   1.360       .  A
C1298      N1299   1.354       .  A
C1298      C1437   1.468       .  S
C1300      N1301   1.367       .  A
C1300      N1305   1.356       .  A
C1300      C1458   1.471       .  S
N1301      C1302   1.362       .  A
C1302      N1303   1.358       .  A
C1302      C1423   1.468       .  S
N1303      C1304   1.354       .  A
C1304      N1305   1.351       .  A
C1304      C1391   1.461       .  S
C1306      N1307   1.364       .  A
C1306      N1311   1.372       .  A
C1306      C1453   1.498       .  S
N1307      C1308   1.360       .  A
C1308      N1309   1.356       .  A
C1308      C1379   1.475       .  S
N1309      C1310   1.360       .  A
C1310      N1311   1.368       .  A
C1310      C1394   1.481       .  S
C1312      N1313   1.373       .  A
C1312      N1317   1.367       .  A
C1312      C1454   1.498       .  S
N1313      C1314   1.367       .  A
C1314      N1315   1.363       .  A
C1314      C1365   1.489       .  S
N1315      C1316   1.359       .  A
C1316      N1317   1.361       .  A
C1316      C1408   1.486       .  S
C1318      N1319   1.371       .  A
C1318      N1323   1.352       .  A
C1318      C1449   1.484       .  S
N1319      C1320   1.370       .  A
C1320      N1321   1.358       .  A
C1320      C1411   1.472       .  S
N1321      C1322   1.353       .  A
C1322      N1323   1.353       .  A
C1322      C1438   1.459       .  S
C1324      N1325   1.348       .  A
C1324      N1329   1.376       .  A
C1324      C1450   1.485       .  S
N1325      C1326   1.347       .  A
C1326      N1327   1.336       .  A
C1326      C1392   1.408       .  S
N1327      C1328   1.341       .  A
C1328      N1329   1.374       .  A
C1328      C1422   1.464       .  S
C1330      N1331   1.374       .  A
C1330      N1335   1.359       .  A
C1330      C1445   1.485       .  S
N1331      C1332   1.368       .  A
C1332      N1333   1.348       .  A
C1332      C1393   1.473       .  S
N1333      C1334   1.341       .  A
C1334      N1335   1.356       .  A
C1334      C1380   1.453       .  S
C1336      N1337   1.365       .  A
C1336      N1341   1.353       .  A
C1336      C1446   1.484       .  S
N1337      C1338   1.365       .  A
C1338      N1339   1.371       .  A
C1338      C1364   1.491       .  S
N1339      C1340   1.367       .  A
C1340      N1341   1.355       .  A
C1340      C1409   1.479       .  S
C1342      N1343   1.364       .  A
C1342      N1347   1.359       .  A
C1342      C1441   1.473       .  S
N1343      C1344   1.358       .  A
C1344      N1345   1.361       .  A
C1344      C1363   1.471       .  S
N1345      C1346   1.358       .  A
C1346      N1347   1.356       .  A
C1346      C1440   1.469       .  S
C1348      N1349   1.365       .  A
C1348      N1353   1.360       .  A
C1348      C1442   1.473       .  S
N1349      C1350   1.358       .  A
C1350      N1351   1.355       .  A
C1350      C1421   1.467       .  S
N1351      C1352   1.356       .  A
C1352      N1353   1.355       .  A
C1352      C1382   1.465       .  S
O1354      C1362   1.263       .  A
O1355      C1363   1.258       .  A
O1356      C1364   1.267       .  A
O1357      C1365   1.280       .  A
O1358      C1364   1.262       .  A
O1359      C1365   1.269       .  A
O1360      C1363   1.275       .  A
O1361      C1362   1.299       .  A
O1366      C1379   1.290       .  A
O1366     Co1374   2.097       .  S
O1367      C1380   1.274       .  A
O1367     Co1375   2.018       .  S
O1368      C1381   1.250       .  A
O1368     Co1376   1.978       .  S
O1369      C1382   1.271       .  A
O1369     Co1377   1.981       .  S
O1370      C1382   1.277       .  A
O1370     Co1375   2.021       .  S
O1371      C1381   1.263       .  A
O1371     Co1374   2.001       .  S
O1372      C1379   1.272       .  A
O1372     Co1377   1.922       .  S
O1373      C1380   1.252       .  A
O1373     Co1376   1.950       .  S
Co1374     O1378   1.962       .  S
Co1375     O1378   2.022       .  S
Co1376     O1378   2.042       .  S
Co1377     O1378   2.032       .  S
O1383      C1391   1.263       .  A
O1383     Co1403   2.005       .  S
O1384      C1392   1.279       .  A
O1384     Co1404   2.040       .  S
O1385      C1393   1.263       .  A
O1385     Co1405   1.987       .  S
O1386     Co1406   1.919   1_455  S
O1387      C1393   1.275       .  A
O1387     Co1404   2.006       .  S
O1388      C1394   1.300       .  A
O1388     Co1403   2.123       .  S
O1389      C1392   1.235       .  A
O1389     Co1406   1.850       .  S
O1390     Co1405   1.948   1_455  S
O1395      C1408   1.267       .  A
O1396      C1409   1.254       .  A
O1398      C1411   1.266       .  A
O1399      C1411   1.249       .  A
O1400      C1410   1.270       .  A
O1402      C1409   1.269       .  A
Co1404     O1407   2.017       .  S
Co1405     O1407   2.066       .  S
Co1406     O1407   2.058       .  S
O1412      C1420   1.257       .  A
O1412     Co1432   1.863       .  S
O1413      C1421   1.254       .  A
O1413     Co1433   1.982       .  S
O1414      C1422   1.277       .  A
O1415      C1423   1.281       .  A
O1415     Co1435   2.042       .  S
O1416      C1422   1.253       .  A
O1416     Co1433   1.970       .  S
O1417      C1423   1.264       .  A
O1417     Co1432   1.974       .  S
O1418      C1421   1.258       .  A
O1419      C1420   1.292       .  A
O1419     Co1434   2.108       .  S
O1424      C1437   1.266       .  A
O1425      C1438   1.272       .  A
O1426      C1439   1.245       .  A
O1427      C1440   1.264       .  A
O1428      C1440   1.282       .  A
O1429      C1439   1.256       .  A
O1430      C1437   1.266       .  A
O1431      C1438   1.251       .  A
Co1432     O1436   2.004       .  S
Co1434     O1436   2.025       .  S
Co1435     O1436   2.034       .  S
C1441      C1442   1.342       .  D
C1441      H1443   1.083       .  S
C1442      H1444   1.083       .  S
C1445      C1446   1.339       .  D
C1445      H1447   1.090       .  S
C1446      H1448   1.090       .  S
C1449      C1450   1.335       .  D
C1449      H1451   1.087       .  S
C1450      H1452   1.088       .  S
C1453      C1454   1.349       .  D
C1453      H1455   1.090       .  S
C1454      H1456   1.089       .  S
C1457      C1458   1.339       .  D
C1457      H1459   1.083       .  S
C1458      H1460   1.084       .  S
C1461      C1462   1.348       .  D
C1461      H1463   1.096       .  S
C1462      H1464   1.096       .  S
