geometry optimzed in LAMMPS
_audit_creation_date              2020-11-30 
_audit_creation_method            'lammps2cif' 
_symmetry_space_group_name_H-M    'P1' 
_symmetry_Int_Tables_number       1 
_symmetry_cell_setting            triclinic 
loop_ 
_symmetry_equiv_pos_as_xyz 
  x,y,z 
_cell_length_a                    31.1960288205747 
_cell_length_b                    31.074540213710062 
_cell_length_c                    30.84876178896649 
_cell_angle_alpha                 89.3848553615366 
_cell_angle_beta                  90.48868471536778 
_cell_angle_gamma                 91.30957179008755 
loop_ 
_atom_site_label 
_atom_site_type_symbol 
_atom_site_fract_x 
_atom_site_fract_y 
_atom_site_fract_z 
_atom_site_charge 
C1          C  0.36197822  0.64331988  0.63849306    -0.00420
N2          N  0.39904250  0.41016488  0.47156936    -0.04050
N3          N  0.37254716  0.40392415  0.50360344    -0.56170
N4          N  0.46675137  0.42459442  0.39040391    -0.03730
N5          N  0.48408323  0.42190038  0.35209017    -0.58300
N6          N  0.47401236  0.39024222  0.41352074    -0.03330
N7          N  0.49616336  0.36307249  0.39113673    -0.56150
N8          N  0.39214124  0.44766828  0.45244928    -0.03010
N9          N  0.36303879  0.46851033  0.47429443    -0.58650
C10         C  0.35123212  0.44075941  0.50603285     0.98120
C11         C  0.50061423  0.38216404  0.35164028     0.97900
N12         N  0.52600156  0.53728314  0.41029362    -0.04240
N13         N  0.54088800  0.56917763  0.38648768    -0.56750
N14         N  0.42308393  0.54263706  0.44132106    -0.02360
N15         N  0.38572891  0.55964716  0.44969202    -0.58000
N16         N  0.45365645  0.56787457  0.45542611    -0.04270
N17         N  0.43918412  0.60335914  0.47021926    -0.57020
N18         N  0.50004069  0.51250870  0.38735003    -0.02000
N19         N  0.49977493  0.52573470  0.34713556    -0.58090
Mn20       Mn  0.44276610  0.48157528  0.41579165     1.18440
C21         C  0.52089699  0.56411781  0.34809351     1.00210
C22         C  0.39667108  0.59770720  0.46886050     1.00870
N23         N  0.52705028  0.37142009  0.49068064    -0.04290
N24         N  0.54759218  0.34681816  0.46444069    -0.60600
N25         N  0.47733691  0.42148620  0.57348575    -0.03090
N26         N  0.49577573  0.41032413  0.61009407    -0.61270
N27         N  0.46406091  0.38701088  0.55257429    -0.03790
N28         N  0.48363278  0.35382482  0.57046125    -0.60860
N29         N  0.55298542  0.39814873  0.51092751    -0.02690
N30         N  0.59232211  0.39272526  0.49803977    -0.61550
Mn31       Mn  0.46374249  0.38819697  0.48152133     1.10660
C32         C  0.58800414  0.36079785  0.46932556     1.01430
C33         C  0.50746915  0.36990543  0.60354596     1.01500
N34         N  0.49430010  0.54721312  0.54210937    -0.03800
N35         N  0.48943669  0.58111534  0.56600197    -0.59180
N36         N  0.58134416  0.49095768  0.50461801    -0.03120
N37         N  0.61009157  0.47531204  0.47767655    -0.55900
N38         N  0.57549979  0.53142115  0.49506830    -0.04430
N39         N  0.60278533  0.54528561  0.46603090    -0.58740
N40         N  0.50094903  0.51333120  0.56632471    -0.03420
N41         N  0.49866555  0.52325820  0.60737271    -0.55930
Mn42       Mn  0.51261944  0.54627446  0.47637387     1.20190
Mn43       Mn  0.52942615  0.45595741  0.54046481     1.10090
Cl44       Cl  0.48604544  0.46777924  0.47879944    -0.83900
C45         C  0.49808721  0.56667034  0.60650742     0.98430
C46         C  0.62305565  0.51014211  0.45416613     0.98230
C47         C  0.67937827  0.33915791  0.61637107    -0.00420
C48         C  0.36410757  0.31737615  0.29937660    -0.00420
C49         C  0.66345359  0.62123114  0.32072091    -0.00420
C50         C  0.36173261  0.63471358  0.32599999    -0.00420
C51         C  0.67129889  0.30822661  0.32418466    -0.00420
C52         C  0.35393942  0.34198970  0.63632276    -0.00420
C53         C  0.66006452  0.64708774  0.64152686    -0.00420
C54         C  0.28271317  0.21729723  0.96956945     0.02630
C55         C  0.25353253  0.24948776  0.97603675     0.02630
C56         C  0.24675540  0.98290466  0.24298937     0.02630
C57         C  0.27788326  0.98171607  0.21097957     0.02630
C58         C  0.02469556  0.22523317  0.23830680     0.02630
C59         C  0.02072616  0.25480266  0.20492953     0.02630
C60         C  0.51546555  0.22846429  0.23506448     0.02630
C61         C  0.51974950  0.19717929  0.20352729     0.02630
C62         C  0.26449866  0.21505434  0.47153202     0.02630
C63         C  0.29546787  0.24910783  0.47235306     0.02630
C64         C  0.27507336  0.47975365  0.24175546     0.02630
C65         C  0.24216899  0.48279368  0.21000034     0.02630
C66         C  0.27847804  0.75274346  0.97279821     0.02630
C67         C  0.24108169  0.72607733  0.97284362     0.02630
C68         C  0.79585340  0.24488683  0.97227377     0.02630
C69         C  0.76425156  0.21199718  0.97578759     0.02630
C70         C  0.01903012  0.26467935  0.72800421     0.02630
C71         C  0.02247178  0.22693787  0.70472205     0.02630
C72         C  0.73881408  0.46611759  0.24715131     0.02630
C73         C  0.77289840  0.46365957  0.21942961     0.02630
C74         C  0.26168721  0.48992931  0.75305449     0.02630
C75         C  0.29234965  0.48324491  0.72211453     0.02630
C76         C  0.86337448  0.64444635  0.83752094    -0.00420
N77         N  0.95783222  0.54067303  0.96693344    -0.04050
N78         N  0.92180565  0.56028164  0.96941154    -0.56170
N79         N  0.04963287  0.51878621  0.92381648    -0.03730
N80         N  0.08403311  0.52198908  0.90061507    -0.58300
N81         N  0.01882792  0.49780640  0.90360068    -0.03330
N82         N  0.03186939  0.48713168  0.86435733    -0.56150
N83         N  0.98946164  0.56452587  0.98212380    -0.03010
N84         N  0.97548052  0.60273077  0.99310183    -0.58650
C85         C  0.93260468  0.59934407  0.98485342     0.98120
C86         C  0.07331644  0.50177399  0.86400722     0.97900
N87         N  0.11320088  0.46893359  0.02568583    -0.04240
N88         N  0.15392880  0.46642739  0.03576652    -0.56750
N89         N  0.05182740  0.54706843  0.05853188    -0.02360
N90         N  0.02570298  0.57521631  0.07430055    -0.58000
N91         N  0.05835508  0.51675184  0.08761267    -0.04270
N92         N  0.03849338  0.52488262  0.12362932    -0.57020
N93         N  0.10838468  0.49574979  0.99329678    -0.02000
N94         N  0.14601405  0.51000524  0.98023459    -0.58090
Mn95       Mn  0.05081925  0.53361261  0.98945442     1.18440
C96         C  0.17137032  0.50064693  0.01437752     1.00210
C97         C  0.01509873  0.55893849  0.11344683     1.00870
N98         N  0.96959697  0.41285451  0.92162233    -0.04290
N99         N  0.99346616  0.40630805  0.88799334    -0.60600
N100        N  0.91287793  0.42251486  0.00733864    -0.03090
N101        N  0.87755257  0.39895385  0.00447875    -0.61270
N102        N  0.90921199  0.45775770  0.98397680    -0.03790
N103        N  0.87064070  0.45886350  0.96713419    -0.60860
N104        N  0.97322344  0.38065675  0.94926553    -0.02690
N105        N  0.99862282  0.35159230  0.93456031    -0.61550
Mn106      Mn  0.96260946  0.47777503  0.94268694     1.10660
C107        C  0.01216231  0.36919234  0.89772263     1.01430
C108        C  0.85464688  0.41862088  0.97320671     1.01500
N109        N  0.00061247  0.43528229  0.10171477    -0.03800
N110        N  0.97909750  0.46180570  0.12671273    -0.59180
N111        N  0.03864463  0.36696276  0.02143450    -0.03120
N112        N  0.05971765  0.34372014  0.99282659    -0.55900
N113        N  0.06608223  0.39014093  0.04398772    -0.04430
N114        N  0.10455285  0.38458177  0.03049758    -0.58740
N115        N  0.97313534  0.41023466  0.08077597    -0.03420
N116        N  0.93422362  0.42040758  0.08970569    -0.55930
Mn117      Mn  0.06009047  0.45176946  0.06747678     1.20190
Mn118      Mn  0.97456392  0.39261250  0.01579411     1.10090
Cl119      Cl  0.01167244  0.46428958  0.00386922    -0.83900
C120        C  0.93750756  0.45298048  0.11692564     0.98430
C121        C  0.10108316  0.35698551  0.99819797     0.98230
C122        C  0.85361070  0.33807922  0.14253695    -0.00420
C123        C  0.16805804  0.33579371  0.82000832    -0.00420
C124        C  0.16753725  0.63320173  0.81434080    -0.00420
C125        C  0.86065589  0.33594143  0.81243345    -0.00420
C126        C  0.85779594  0.61802285  0.13864480    -0.00420
C127        C  0.78658528  0.49189532  0.73945036     0.02630
C128        C  0.75588451  0.49314967  0.70619404     0.02630
C129        C  0.17108764  0.63668410  0.13280211    -0.00420
C130        C  0.18014796  0.32165333  0.11353129    -0.00420
C131        C  0.28747596  0.99468903  0.73980005     0.02630
C132        C  0.25485275  0.99344892  0.70856619     0.02630
C133        C  0.51159319  0.71192392  0.23656516     0.02630
C134        C  0.51390278  0.74717463  0.20757966     0.02630
C135        C  0.52644763  0.23924966  0.74486253     0.02630
C136        C  0.52387207  0.26884645  0.70997660     0.02630
C137        C  0.67769088  0.13631895  0.81005953    -0.00420
N138        N  0.51148197  0.88656586  0.93804982    -0.04050
N139        N  0.50350552  0.84699708  0.92508337    -0.56170
N140        N  0.61156790  0.92467136  0.95702559    -0.03730
N141        N  0.64833012  0.93954296  0.97313962    -0.58300
N142        N  0.59306431  0.89824280  0.98508897    -0.03330
N143        N  0.61763604  0.89283282  0.01892598    -0.56150
N144        N  0.52321596  0.91081714  0.90560399    -0.03010
N145        N  0.51708405  0.89047340  0.86970603    -0.58650
C146        C  0.51221454  0.84909976  0.88212874     0.98120
C147        C  0.65065728  0.92004279  0.01205305     0.97900
N148        N  0.60169867  0.05553745  0.91376260    -0.04240
N149        N  0.62721557  0.08515238  0.92981752    -0.56750
N150        N  0.53055585  0.99336848  0.86610869    -0.02360
N151        N  0.53456370  0.98584740  0.82470036    -0.58000
N152        N  0.52002087  0.03318943  0.87285844    -0.04270
N153        N  0.52136313  0.05437245  0.83573532    -0.57020
N154        N  0.61759547  0.01727207  0.91882258    -0.02000
N155        N  0.65176049  0.02074930  0.94443575    -0.58090
Mn156      Mn  0.57248747  0.96051809  0.91061996     1.18440
C157        C  0.65659113  0.06356076  0.95226067     1.00210
C158        C  0.53483563  0.02511857  0.80669285     1.00870
N159        N  0.54882299  0.93018244  0.06244705    -0.04290
N160        N  0.54887679  0.90066773  0.09307025    -0.60600
N161        N  0.44955065  0.96192620  0.02217857    -0.03090
N162        N  0.41565777  0.97343260  0.99910758    -0.61270
N163        N  0.46038916  0.92264001  0.01156694    -0.03790
N164        N  0.43281279  0.90724976  0.98287535    -0.60860
N165        N  0.53368782  0.96609222  0.07694668    -0.02690
N166        N  0.51998643  0.95938020  0.11663322    -0.61550
Mn167      Mn  0.52794548  0.90818919  0.00005872     1.10660
C168        C  0.52368780  0.91652196  0.12353531     1.01430
C169        C  0.40586692  0.93940475  0.97416892     1.01500
N170        N  0.47536803  0.06592757  0.95552284    -0.03800
N171        N  0.44844443  0.09073837  0.93605372    -0.59180
N172        N  0.55563173  0.05547365  0.03528620    -0.03120
N173        N  0.55338161  0.07686339  0.07141469    -0.55900
N174        N  0.55488817  0.08245556  0.00190465    -0.04430
N175        N  0.54091782  0.11949320  0.01591219    -0.58740
N176        N  0.46131014  0.05298983  0.99328956    -0.03420
N177        N  0.42236020  0.06764302  0.99975131    -0.55930
Mn178      Mn  0.53759251  0.05984140  0.93556711     1.20190
Mn179      Mn  0.49987049  0.01012060  0.03403240     1.10090
Cl180      Cl  0.53467394  0.98468072  0.97011672    -0.83900
C181        C  0.41587952  0.09200044  0.96387649     0.98430
C182        C  0.53542867  0.11366494  0.05919600     0.98230
C183        C  0.68142089  0.82759945  0.14304780    -0.00420
C184        C  0.36910202  0.85221215  0.82822442    -0.00420
C185        C  0.36192395  0.15531858  0.81875982    -0.00420
C186        C  0.67548439  0.82574693  0.83567806    -0.00420
C187        C  0.36148702  0.83370229  0.13180699    -0.00420
C188        C  0.52083789  0.75407706  0.75756805     0.02630
C189        C  0.51641390  0.71818564  0.73060630     0.02630
C190        C  0.36582710  0.13237694  0.12029097    -0.00420
C191        C  0.68250671  0.12966976  0.12465207    -0.00420
C192        C  0.01486355  0.74329804  0.24693493     0.02630
C193        C  0.01239265  0.71637619  0.21127248     0.02630
C194        C  0.78802421  0.98502513  0.25714809     0.02630
C195        C  0.75736997  0.97915303  0.22430226     0.02630
C196        C  0.75971701  0.23856838  0.47301384     0.02630
C197        C  0.79485966  0.21204920  0.47592964     0.02630
C198        C  0.28572072  0.71873665  0.48643319     0.02630
C199        C  0.25316622  0.74867301  0.48382145     0.02630
C200        C  0.86374847  0.14125908  0.30833050    -0.00420
N201        N  0.95060580  0.95961968  0.38375181    -0.04050
N202        N  0.92749158  0.95862974  0.34816012    -0.56170
N203        N  0.97529087  0.05756258  0.42473156    -0.03730
N204        N  0.99210783  0.09540141  0.43575112    -0.58300
N205        N  0.99179775  0.04473565  0.38830849    -0.03330
N206        N  0.01659309  0.07460053  0.37204549    -0.56150
N207        N  0.92583470  0.96810916  0.41671240    -0.03010
N208        N  0.88569753  0.96926600  0.40405167    -0.58650
C209        C  0.88890858  0.97257158  0.36089784     0.98120
C210        C  0.01741267  0.10543920  0.40193322     0.97900
N211        N  0.98665088  0.03080637  0.55528857    -0.04240
N212        N  0.00465866  0.05681960  0.58271702    -0.56750
N213        N  0.92051220  0.96264632  0.51189547    -0.02360
N214        N  0.88120105  0.96911310  0.52410302    -0.58000
N215        N  0.94355429  0.94877913  0.54473828    -0.04270
N216        N  0.92035013  0.95012547  0.57979311    -0.57020
N217        N  0.96987606  0.05134147  0.52252807    -0.02000
N218        N  0.97919441  0.09308667  0.52589232    -0.58090
Mn219      Mn  0.94655740  0.01099533  0.46839461     1.18440
C220        C  0.00046278  0.09562900  0.56450727     1.00210
C221        C  0.88381221  0.96930539  0.56744599     1.00870
N222        N  0.08146245  0.00662379  0.38959647    -0.04290
N223        N  0.10544559  0.01105854  0.35498198    -0.60600
N224        N  0.06669953  0.90379086  0.41141127    -0.03090
N225        N  0.06348474  0.86166907  0.41384901    -0.61270
N226        N  0.04366019  0.91833037  0.37909804    -0.03790
N227        N  0.02633449  0.88603813  0.35772832    -0.60860
N228        N  0.10538344  0.99564424  0.42299874    -0.02690
N229        N  0.14562241  0.99618912  0.41144158    -0.61550
Mn230      Mn  0.01622804  0.98184607  0.38409040     1.10660
C231        C  0.14414721  0.99687796  0.36772142     1.01430
C232        C  0.03413672  0.85138683  0.38343359     1.01500
N233        N  0.03162828  0.90466388  0.54533747    -0.03800
N234        N  0.00194662  0.87681970  0.55782830    -0.59180
N235        N  0.09974922  0.98488598  0.51787180    -0.03120
N236        N  0.13919796  0.99557818  0.52846377    -0.55900
N237        N  0.07369545  0.99453930  0.54871304    -0.04430
N238        N  0.09509887  0.01181297  0.58096481    -0.58740
N239        N  0.04885479  0.89304350  0.50861338    -0.03420
N240        N  0.02675185  0.85888330  0.49404708    -0.55930
Mn241      Mn  0.00971279  0.96896098  0.54931714     1.20190
Mn242      Mn  0.08231212  0.94325583  0.46608343     1.10090
Cl243      Cl  0.01367785  0.97617712  0.46682131    -0.83900
C244        C  0.99759188  0.84924551  0.52523413     0.98430
C245        C  0.13666409  0.00553782  0.57083453     0.98230
C246        C  0.87310718  0.82396154  0.33709676    -0.00420
C247        C  0.17298430  0.82678210  0.32347814    -0.00420
C248        C  0.17051219  0.84030670  0.63154171    -0.00420
C249        C  0.86718772  0.13551473  0.63280692    -0.00420
C250        C  0.85745745  0.81915408  0.62031085    -0.00420
C251        C  0.76283501  0.74110814  0.47496148     0.02630
C252        C  0.73412009  0.70750244  0.47030656     0.02630
C253        C  0.16843854  0.14164176  0.32115783    -0.00420
C254        C  0.16538065  0.14684570  0.62393745    -0.00420
C255        C  0.01476882  0.72104133  0.74419295     0.02630
C256        C  0.01327026  0.75205471  0.71141599     0.02630
C257        C  0.75595334  0.98284857  0.74552462     0.02630
C258        C  0.78588626  0.97828271  0.71274167     0.02630
C259        C  0.77671716  0.70793626  0.98558441     0.02630
C260        C  0.74770412  0.74018975  0.99073078     0.02630
C261        C  0.89210577  0.76163280  0.67530186     0.25660
C262        C  0.89253883  0.80221666  0.65425434    -0.22450
C263        C  0.93320370  0.82511209  0.65764772     0.20570
C264        C  0.96629197  0.81157051  0.68433107     0.25600
C265        C  0.96980180  0.76790475  0.69400053    -0.22390
C266        C  0.93172773  0.74212394  0.68660892     0.20510
F267        F  0.93221720  0.69859973  0.69009486    -0.12350
F268        F  0.85470439  0.74043713  0.68397455    -0.14710
F269        F  0.99911670  0.83986598  0.69260677    -0.14710
F270        F  0.94720471  0.85345745  0.62701684    -0.12350
C271        C  0.79501608  0.86173399  0.66160426     0.25660
C272        C  0.83779619  0.86170925  0.64407245    -0.22450
C273        C  0.86194122  0.89949805  0.65630285     0.20570
C274        C  0.84545093  0.93332265  0.68109982     0.25600
C275        C  0.80223182  0.93555691  0.69284670    -0.22390
C276        C  0.77700059  0.89855452  0.68196366     0.20510
F277        F  0.73437263  0.89760598  0.68983781    -0.12350
F278        F  0.76939071  0.82597371  0.65901477    -0.14710
F279        F  0.87345222  0.96417486  0.69510009    -0.14710
F280        F  0.90298707  0.90557128  0.64637012    -0.12350
C281        C  0.81894818  0.74748436  0.58767235     0.25660
C282        C  0.81886345  0.79256828  0.59714430    -0.22450
C283        C  0.79088196  0.81680159  0.56905491     0.20570
C284        C  0.77140142  0.79947625  0.53161102     0.25600
C285        C  0.77655035  0.75661273  0.52028061    -0.22390
C286        C  0.79866851  0.73031484  0.55012329     0.20510
F287        F  0.80493126  0.68841091  0.54055413    -0.12350
F288        F  0.84083973  0.71907619  0.61198820    -0.14710
F289        F  0.74905934  0.82581903  0.50474731    -0.14710
F290        F  0.78512447  0.85946684  0.57456013    -0.12350
C291        C  0.83436960  0.04463607  0.71836444     0.25660
C292        C  0.80467849  0.01973444  0.69483295    -0.22450
C293        C  0.79019713  0.03570240  0.65556869     0.20570
C294        C  0.80534911  0.07520092  0.63912036     0.25600
C295        C  0.83735139  0.10222031  0.66107834    -0.22390
C296        C  0.85117327  0.08389111  0.70192401     0.20510
F297        F  0.88627239  0.09784568  0.72373782    -0.12350
F298        F  0.85043756  0.02878535  0.75618172    -0.14710
F299        F  0.79275954  0.08133552  0.59756810    -0.14710
F300        F  0.76209621  0.01169893  0.63147968    -0.12350
C301        C  0.05581871  0.78522440  0.64784483     0.25660
C302        C  0.05478094  0.77317041  0.69196364    -0.22450
C303        C  0.09305391  0.78310203  0.71590653     0.20570
C304        C  0.13168039  0.79580590  0.69467865     0.25600
C305        C  0.13068665  0.81440891  0.65261974    -0.22390
C306        C  0.09005132  0.81006697  0.63084107     0.20510
F307        F  0.07977512  0.83492807  0.59624207    -0.12350
F308        F  0.02166159  0.77684386  0.62147702    -0.14710
F309        F  0.16925261  0.79348035  0.71703430    -0.14710
F310        F  0.09368289  0.78090281  0.75983314    -0.12350
C311        C  0.85327548  0.79191511  0.41592405     0.25660
C312        C  0.84166087  0.79912208  0.37069300    -0.22450
C313        C  0.79793001  0.78905193  0.36169869     0.20570
C314        C  0.76996534  0.77420798  0.39563105     0.25600
C315        C  0.78691015  0.76037030  0.43669867    -0.22390
C316        C  0.83032266  0.76580415  0.44302997     0.20510
F317        F  0.85054961  0.75143618  0.47940798    -0.12350
F318        F  0.88473289  0.81242325  0.43852636    -0.14710
F319        F  0.72707275  0.77417913  0.38824683    -0.14710
F320        F  0.78127347  0.79776071  0.32187781    -0.12350
C321        C  0.04504575  0.12325696  0.62031858     0.25660
C322        C  0.03403195  0.12655207  0.57662685    -0.22450
C323        C  0.06629991  0.13626147  0.54668209     0.20570
C324        C  0.10983298  0.13632825  0.55926606     0.25600
C325        C  0.12169793  0.13010736  0.60363655    -0.22390
C326        C  0.08706141  0.12137492  0.63292565     0.20510
F327        F  0.09332980  0.11173134  0.67550743    -0.12350
F328        F  0.01508161  0.11198291  0.65030571    -0.14710
F329        F  0.13928515  0.14365526  0.52787976    -0.14710
F330        F  0.05532973  0.14434959  0.50491708    -0.12350
C331        C  0.08651096  0.13196239  0.33384267     0.25660
C332        C  0.12878377  0.12454526  0.34941766    -0.22450
C333        C  0.12998460  0.11369243  0.39458029     0.20570
C334        C  0.09256795  0.11569664  0.41974248     0.25600
C335        C  0.05493286  0.13354383  0.40198607    -0.22390
C336        C  0.05752644  0.15111802  0.36089874     0.20510
F337        F  0.02178106  0.16769365  0.34276338    -0.12350
F338        F  0.07448499  0.12624170  0.29206138    -0.14710
F339        F  0.09062792  0.09166578  0.45670224    -0.14710
F340        F  0.16255728  0.09185089  0.41260888    -0.12350
C341        C  0.88740056  0.85532278  0.54881132     0.25660
C342        C  0.88644639  0.82132457  0.57868071    -0.22450
C343        C  0.91326511  0.78549355  0.56812533     0.20570
C344        C  0.94763327  0.79037274  0.53974764     0.25600
C345        C  0.95451701  0.82922784  0.51847666    -0.22390
C346        C  0.91937293  0.85719045  0.51699941     0.20510
F347        F  0.91617681  0.88661589  0.48508127    -0.12350
F348        F  0.85695600  0.88544700  0.54904205    -0.14710
F349        F  0.97778529  0.75959361  0.53841561    -0.14710
F350        F  0.91090401  0.74732509  0.58941982    -0.12350
C351        C  0.90631335  0.02653946  0.61927909     0.25660
C352        C  0.87928145  0.01315806  0.58481128    -0.22450
C353        C  0.86232552  0.04553083  0.55716230     0.20570
C354        C  0.87121758  0.08873408  0.56484896     0.25600
C355        C  0.88842527  0.10085362  0.60508838    -0.22390
C356        C  0.91287096  0.06975135  0.62754722     0.20510
F357        F  0.93775508  0.08019761  0.66225390    -0.12350
F358        F  0.92851397  0.99828664  0.64414819    -0.14710
F359        F  0.85965892  0.11799504  0.53449839    -0.14710
F360        F  0.83761424  0.03572147  0.52195828    -0.12350
C361        C  0.18192217  0.90241438  0.57785858     0.25660
C362        C  0.15465596  0.88142162  0.60863532    -0.22450
C363        C  0.12708432  0.90799298  0.63242655     0.20570
C364        C  0.13056310  0.95220088  0.62969862     0.25600
C365        C  0.15718817  0.97244118  0.59848958    -0.22390
C366        C  0.18734825  0.94699669  0.57779277     0.20510
F367        F  0.21622814  0.96545482  0.55011847    -0.12350
F368        F  0.20709481  0.88021640  0.55074738    -0.14710
F369        F  0.10243437  0.97479007  0.65343487    -0.14710
F370        F  0.09888775  0.89198127  0.66204506    -0.12350
C371        C  0.16315187  0.88327260  0.38190555     0.25660
C372        C  0.14702657  0.86294185  0.34508090    -0.22450
C373        C  0.12048989  0.88890784  0.31900521     0.20570
C374        C  0.12537318  0.93378643  0.32004982     0.25600
C375        C  0.15426781  0.95366760  0.35022204    -0.22390
C376        C  0.17652796  0.92597772  0.37875073     0.20510
F377        F  0.20381596  0.94161325  0.40972422    -0.12350
F378        F  0.16542660  0.86226367  0.42066871    -0.14710
F379        F  0.09934862  0.95716565  0.29385375    -0.14710
F380        F  0.09137916  0.87102320  0.29125457    -0.12350
C381        C  0.96396452  0.86521320  0.41093494     0.25660
C382        C  0.99453741  0.83425935  0.40191579    -0.22450
C383        C  0.97992091  0.79372982  0.39215968     0.20570
C384        C  0.93851643  0.78959056  0.37651878     0.25600
C385        C  0.91432196  0.82776531  0.36526479    -0.22390
C386        C  0.92526360  0.86420007  0.38830164     0.20510
F387        F  0.89377529  0.89023448  0.39932599    -0.12350
F388        F  0.97560673  0.89949772  0.43490607    -0.14710
F389        F  0.92077826  0.74931309  0.37628557    -0.14710
F390        F  0.00238068  0.75896430  0.40489255    -0.12350
C391        C  0.89660266  0.09205363  0.36536933     0.25660
C392        C  0.89074077  0.10250667  0.32193392    -0.22450
C393        C  0.90192016  0.07011273  0.29247065     0.20570
C394        C  0.89530592  0.02756793  0.30410087     0.25600
C395        C  0.88346673  0.01713776  0.34657911    -0.22390
C396        C  0.88607011  0.05070733  0.37802545     0.20510
F397        F  0.87906330  0.04464814  0.42116070    -0.12350
F398        F  0.90430751  0.12237678  0.39604356    -0.14710
F399        F  0.90224119  0.99661961  0.27438952    -0.14710
F400        F  0.91629420  0.07817006  0.25199563    -0.12350
C401        C  0.19729454  0.75770377  0.37061944     0.25660
C402        C  0.20224997  0.80263742  0.36021422    -0.22450
C403        C  0.23186485  0.82511399  0.38896523     0.20570
C404        C  0.24611267  0.80751384  0.42837331     0.25600
C405        C  0.23689879  0.76502112  0.44008243    -0.22390
C406        C  0.21366939  0.73964858  0.40990411     0.20510
F407        F  0.20587284  0.69735173  0.41885192    -0.12350
F408        F  0.17697799  0.73023374  0.34301777    -0.14710
F409        F  0.27029964  0.83260417  0.45538762    -0.14710
F410        F  0.24423838  0.86680611  0.38336601    -0.12350
C411        C  0.18766717  0.77413207  0.52428064     0.25660
C412        C  0.23202996  0.76767481  0.52424917    -0.22450
C413        C  0.25442624  0.78170687  0.56197645     0.20570
C414        C  0.23256427  0.79367717  0.59980326     0.25600
C415        C  0.19036088  0.80888055  0.59673845    -0.22390
C416        C  0.16822187  0.79720417  0.55750806     0.20510
F417        F  0.12894545  0.81122868  0.54765981    -0.12350
F418        F  0.16299191  0.76149815  0.49004612    -0.14710
F419        F  0.25475902  0.79548032  0.63781807    -0.14710
F420        F  0.29663950  0.79183982  0.56040354    -0.12350
C421        C  0.84708475  0.20502593  0.36401071     0.25660
C422        C  0.84164188  0.16141121  0.35134004    -0.22450
C423        C  0.81816408  0.13531153  0.38292253     0.20570
C424        C  0.80260590  0.15183649  0.42189157     0.25600
C425        C  0.81450662  0.19300197  0.43553817    -0.22390
C426        C  0.84179117  0.21710391  0.40785603     0.20510
F427        F  0.86113008  0.25388955  0.42231896    -0.12350
F428        F  0.85923402  0.23602680  0.33504040    -0.14710
F429        F  0.77737017  0.12622241  0.44736792    -0.14710
F430        F  0.81064309  0.09258130  0.37801289    -0.12350
C431        C  0.78848690  0.16831695  0.54532980     0.25660
C432        C  0.81171010  0.19808619  0.51963363    -0.22450
C433        C  0.84773055  0.21817554  0.53867356     0.20570
C434        C  0.86269171  0.20459931  0.57988650     0.25600
C435        C  0.84198214  0.16991701  0.60335253    -0.22390
C436        C  0.79958489  0.16211748  0.58919699     0.20510
F437        F  0.76840552  0.15077583  0.61785392    -0.11350
F438        F  0.75490912  0.14546892  0.52829068    -0.14710
F439        F  0.89306113  0.23015464  0.59874057    -0.14710
F440        F  0.86834472  0.25107632  0.51765594    -0.12350
C441        C  0.84024706  0.92232590  0.25814058     0.25660
C442        C  0.81025263  0.94641449  0.28032459    -0.22450
C443        C  0.80122178  0.93133182  0.32302704     0.20570
C444        C  0.82205798  0.89435777  0.34190023     0.25600
C445        C  0.85032057  0.86774858  0.31775269    -0.22390
C446        C  0.85303423  0.88130757  0.27298237     0.20510
F447        F  0.86557730  0.85472647  0.24120468    -0.12350
F448        F  0.85784064  0.93855132  0.22122841    -0.14710
F449        F  0.81230400  0.88376800  0.38347430    -0.14710
F450        F  0.77282846  0.95284627  0.34723272    -0.12350
C451        C  0.82593556  0.05531535  0.23439692     0.25660
C452        C  0.80243113  0.03150057  0.26589735    -0.22450
C453        C  0.78119961  0.05658239  0.29650456     0.20570
C454        C  0.78895824  0.10180398  0.29832428     0.25600
C455        C  0.82518000  0.12151723  0.27803300    -0.22390
C456        C  0.83217567  0.10052558  0.23819865     0.20510
F457        F  0.82711801  0.12364630  0.20100160    -0.12350
F458        F  0.83973207  0.03578884  0.19815510    -0.14710
F459        F  0.76035749  0.12647584  0.31904944    -0.14710
F460        F  0.75066116  0.03825649  0.32221324    -0.12350
C461        C  0.09381499  0.77376827  0.24056252     0.25660
C462        C  0.05863228  0.75896153  0.26597342    -0.22450
C463        C  0.06549666  0.75927092  0.31107104     0.20570
C464        C  0.10250019  0.77920825  0.32982597     0.25600
C465        C  0.13717615  0.79504173  0.30388798    -0.22390
C466        C  0.13403798  0.78453715  0.25954295     0.20510
F467        F  0.16888273  0.78789604  0.23354568    -0.12350
F468        F  0.08884731  0.78205137  0.19774786    -0.14710
F469        F  0.10447663  0.78292438  0.37359554    -0.14710
F470        F  0.03609401  0.73986215  0.33694493    -0.12350
C471        C  0.96981045  0.80608851  0.26400230     0.25660
C472        C  0.97457750  0.76165328  0.26637808    -0.22450
C473        C  0.93957381  0.73655128  0.28322923     0.20570
C474        C  0.90013673  0.75584426  0.29496900     0.25600
C475        C  0.89774373  0.80119335  0.29868797    -0.22390
C476        C  0.93341372  0.82546163  0.28005560     0.20510
F477        F  0.93706757  0.86879202  0.28522727    -0.12350
F478        F  0.00191702  0.83167283  0.24788222    -0.14710
F479        F  0.86765694  0.73028583  0.31020189    -0.14710
F480        F  0.94290647  0.69318004  0.28670718    -0.12350
C481        C  0.74156557  0.06901951  0.13778362     0.25660
C482        C  0.70858897  0.09572647  0.15468131    -0.22450
C483        C  0.69592300  0.08442309  0.19791172     0.20570
C484        C  0.70968007  0.04624192  0.21908116     0.25600
C485        C  0.73903955  0.01840193  0.19998460    -0.22390
C486        C  0.75482491  0.03089976  0.15914536     0.20510
F487        F  0.78285171  0.00527764  0.13883040    -0.12350
F488        F  0.75655618  0.07500647  0.09693438    -0.14710
F489        F  0.69337794  0.03624523  0.25860666    -0.14710
F490        F  0.67004898  0.10997122  0.22092816    -0.12350
C491        C  0.67525153  0.89454185  0.77995002     0.25660
C492        C  0.69826879  0.86515798  0.80792687    -0.22450
C493        C  0.74336575  0.87511035  0.81032716     0.20570
C494        C  0.76187674  0.91320267  0.79143189     0.25600
C495        C  0.73684449  0.94347361  0.76878946    -0.22390
C496        C  0.69338200  0.93330517  0.76368009     0.20510
F497        F  0.66850468  0.95948134  0.73907480    -0.12350
F498        F  0.63519213  0.88602080  0.76458715    -0.14710
F499        F  0.80483106  0.92033283  0.79519374    -0.14710
F500        F  0.77094317  0.84725981  0.82904500    -0.12350
C501        C  0.72368029  0.82972236  0.90568080     0.25660
C502        C  0.70757821  0.80540758  0.86972733    -0.22450
C503        C  0.71333169  0.76071832  0.87287028     0.20570
C504        C  0.71618935  0.74118156  0.91402360     0.25600
C505        C  0.73172620  0.76422757  0.95029810    -0.22390
C506        C  0.73802035  0.80899302  0.94426653     0.20510
F507        F  0.75675330  0.83277825  0.97593660    -0.12350
F508        F  0.72247684  0.87335876  0.90474562    -0.14710
F509        F  0.70162680  0.70004665  0.91869840    -0.14710
F510        F  0.70989922  0.73522154  0.83747820    -0.12350
C511        C  0.62385692  0.75682424  0.82601800     0.25660
C512        C  0.64986626  0.79067765  0.80655918    -0.22450
C513        C  0.63739122  0.80060685  0.76347458     0.20570
C514        C  0.59429206  0.79383136  0.74969463     0.25600
C515        C  0.56607814  0.76611124  0.77318649    -0.22390
C516        C  0.58378508  0.74427921  0.80872737     0.20510
F517        F  0.56092507  0.71256354  0.82918380    -0.12350
F518        F  0.63318382  0.73872236  0.86494216    -0.14710
F519        F  0.58005753  0.81570364  0.71439879    -0.14710
F520        F  0.66587832  0.81888607  0.73541625    -0.12350
C521        C  0.43865526  0.80390727  0.83617153     0.25660
C522        C  0.41005214  0.82736386  0.80897612    -0.22450
C523        C  0.41762525  0.82086302  0.76352836     0.20570
C524        C  0.45629596  0.80362539  0.74778423     0.25600
C525        C  0.48364913  0.78021453  0.77530313    -0.22390
C526        C  0.47263309  0.77932022  0.81958941     0.20510
F527        F  0.49371141  0.75317454  0.84748894    -0.12350
F528        F  0.43253860  0.80124790  0.87938789    -0.14710
F529        F  0.46318665  0.80364564  0.70438751    -0.14710
F530        F  0.38641750  0.82696319  0.73336938    -0.12350
C531        C  0.69693645  0.74121278  0.05595923     0.25660
C532        C  0.73570661  0.75410825  0.03631616    -0.22450
C533        C  0.76414030  0.77921857  0.06134618     0.20570
C534        C  0.75057225  0.79924155  0.09974367     0.25600
C535        C  0.70847958  0.79092264  0.11835400    -0.22390
C536        C  0.68562288  0.75603566  0.09762253     0.20510
F537        F  0.65042934  0.73721557  0.11572471    -0.12350
F538        F  0.66932781  0.71440043  0.03452715    -0.14710
F539        F  0.77392620  0.83532474  0.10841114    -0.14710
F540        F  0.80294112  0.79077085  0.04466454    -0.12350
C541        C  0.74824171  0.86193458  0.18333205     0.25660
C542        C  0.70388051  0.85338980  0.18226398    -0.22450
C543        C  0.68014683  0.88232135  0.20849258     0.20570
C544        C  0.69812659  0.92175723  0.22320578     0.25600
C545        C  0.74006957  0.93460152  0.21218923    -0.22390
C546        C  0.76459969  0.90389538  0.19067789     0.20510
F547        F  0.80277731  0.91485412  0.17303904    -0.12350
F548        F  0.77585904  0.82882104  0.18386345    -0.14710
F549        F  0.67336565  0.94847510  0.24621693    -0.14710
F550        F  0.63863522  0.87405577  0.21900680    -0.12350
C551        C  0.67883095  0.05185329  0.02915862     0.25660
C552        C  0.66637286  0.08015439  0.99610169    -0.22450
C553        C  0.64856781  0.11968114  0.00822505     0.20570
C554        C  0.64235626  0.12874347  0.05152862     0.25600
C555        C  0.66399504  0.10550049  0.08389122    -0.22390
C556        C  0.67390820  0.06291997  0.07261222     0.20510
F557        F  0.67625130  0.03133649  0.10297527    -0.12350
F558        F  0.69509159  0.01328103  0.01936709    -0.14710
F559        F  0.61568914  0.16085586  0.06152400    -0.14710
F560        F  0.63400800  0.14861923  0.97851889    -0.12350
C561        C  0.46994978  0.08280240  0.09672170     0.25660
C562        C  0.49096428  0.11793430  0.07481922    -0.22450
C563        C  0.46526455  0.14849613  0.05476108     0.20570
C564        C  0.42103255  0.14596851  0.05930642     0.25600
C565        C  0.40134770  0.11628796  0.08902206    -0.22390
C566        C  0.42549519  0.08030979  0.09896558     0.20510
F567        F  0.40626146  0.04099843  0.10417292    -0.12350
F568        F  0.49132875  0.04849083  0.11271797    -0.14710
F569        F  0.39846055  0.17593332  0.03784770    -0.14710
F570        F  0.48282753  0.18068362  0.03006616    -0.12350
C571        C  0.44841481  0.91579230  0.14535594     0.25660
C572        C  0.48151666  0.89359011  0.12625845    -0.22450
C573        C  0.46984487  0.86151523  0.09528365     0.20570
C574        C  0.42695705  0.85242337  0.08560645     0.25600
C575        C  0.39437700  0.86748065  0.11194917    -0.22390
C576        C  0.40603802  0.90554021  0.13561396     0.20510
F577        F  0.37746100  0.93254323  0.15240826    -0.12350
F578        F  0.45697079  0.94937489  0.17225399    -0.14710
F579        F  0.41750198  0.83691993  0.04572960    -0.14710
F580        F  0.49905828  0.84269624  0.06964171    -0.12350
C581        C  0.56907225  0.84426070  0.83055212     0.25660
C582        C  0.54908671  0.82471438  0.86670425    -0.22450
C583        C  0.57631641  0.80779760  0.89910329     0.20570
C584        C  0.62040804  0.81785185  0.89834446     0.25600
C585        C  0.63836328  0.84332260  0.86366366    -0.22390
C586        C  0.60768522  0.86504809  0.83984373     0.20510
F587        F  0.61035990  0.90834368  0.83629188    -0.12350
F588        F  0.54457964  0.86093102  0.79799437    -0.14710
F589        F  0.64459728  0.80110877  0.93065722    -0.14710
F590        F  0.55998080  0.78495883  0.93316818    -0.12350
C591        C  0.39169003  0.15599232  0.93502416     0.25660
C592        C  0.37849050  0.11566928  0.95146360    -0.22450
C593        C  0.35296144  0.08985274  0.92481571     0.20570
C594        C  0.35454570  0.09626178  0.87998202     0.25600
C595        C  0.37796808  0.13246078  0.86126665    -0.22390
C596        C  0.40127818  0.15783809  0.89108377     0.20510
F597        F  0.44166859  0.17136451  0.88124165    -0.12350
F598        F  0.41524714  0.18272241  0.96067968    -0.14710
F599        F  0.33194506  0.06707059  0.85622155    -0.14710
F600        F  0.33502187  0.05281630  0.94089147    -0.12350
C601        C  0.42245209  0.94308088  0.89634841     0.25660
C602        C  0.39142437  0.94486896  0.92894751    -0.22450
C603        C  0.34955926  0.93452003  0.91816000     0.20570
C604        C  0.34124614  0.91160959  0.88035765     0.25600
C605        C  0.37620998  0.89491307  0.85509486    -0.22390
C606        C  0.41574096  0.91658745  0.86004761     0.20510
F607        F  0.44716330  0.91184845  0.83071638    -0.12350
F608        F  0.46026941  0.96377419  0.90269194    -0.14710
F609        F  0.30065066  0.89570832  0.87745400    -0.14710
F610        F  0.31806436  0.93870720  0.94786371    -0.12350
C611        C  0.65551368  0.93737999  0.08668951     0.25660
C612        C  0.67856209  0.93222250  0.04811325    -0.22450
C613        C  0.71144099  0.90382815  0.04966833     0.20570
C614        C  0.69954977  0.86520366  0.06934711     0.25600
C615        C  0.67554752  0.86453670  0.10835908    -0.22390
C616        C  0.65253022  0.90263813  0.11612838     0.20510
F617        F  0.62233363  0.90421013  0.14715894    -0.12350
F618        F  0.62603259  0.96861052  0.08874109    -0.14710
F619        F  0.69494155  0.83193864  0.04171803    -0.14710
F620        F  0.73808469  0.90300013  0.01517137    -0.12350
C621        C  0.70708512  0.09880167  0.73950765     0.25660
C622        C  0.71577348  0.11672543  0.78131599    -0.22450
C623        C  0.74950081  0.09451971  0.80309485     0.20570
C624        C  0.75982363  0.05105234  0.79365036     0.25600
C625        C  0.74142443  0.02903303  0.75799265    -0.22390
C626        C  0.71676192  0.05514854  0.72957110     0.20510
F627        F  0.70183204  0.03852111  0.69174200    -0.12350
F628        F  0.68730282  0.12278579  0.70877287    -0.14710
F629        F  0.78906511  0.03092030  0.81904073    -0.14710
F630        F  0.77472497  0.11568369  0.83222173    -0.12350
C631        C  0.61301463  0.10041377  0.76582563     0.25660
C632        C  0.64339290  0.09811211  0.80238387    -0.22450
C633        C  0.64607389  0.05642366  0.82019357     0.20570
C634        C  0.61361463  0.02598781  0.81242319     0.25600
C635        C  0.57646124  0.03688158  0.78840413    -0.22390
C636        C  0.57858235  0.07221472  0.76178509     0.20510
F637        F  0.54545406  0.08165029  0.73468526    -0.12350
F638        F  0.61416775  0.13115517  0.73439653    -0.14710
F639        F  0.61675188  0.98742199  0.83262517    -0.14710
F640        F  0.68061132  0.04260436  0.84194344    -0.12350
C641        C  0.46059871  0.18712358  0.74090749     0.25660
C642        C  0.48298862  0.22094814  0.76180836    -0.22450
C643        C  0.46256568  0.23831965  0.79779586     0.20570
C644        C  0.42385238  0.22007743  0.81488724     0.25600
C645        C  0.40118096  0.18366152  0.79568841    -0.22390
C646        C  0.41972989  0.17148429  0.75513837     0.20510
F647        F  0.39868761  0.14482372  0.72734508    -0.12350
F648        F  0.47847014  0.16850414  0.70606212    -0.14710
F649        F  0.41159825  0.23764186  0.85265952    -0.14710
F650        F  0.48173384  0.27196902  0.81862468    -0.12350
C651        C  0.61385096  0.23009655  0.75158948     0.25660
C652        C  0.57016631  0.22186120  0.76594446    -0.22450
C653        C  0.56899883  0.19566530  0.80399963     0.20570
C654        C  0.60613390  0.17627848  0.82150247     0.25600
C655        C  0.64543652  0.17417172  0.79778591    -0.22390
C656        C  0.64886345  0.20342971  0.76308377     0.20510
F657        F  0.68719639  0.20949694  0.74320634    -0.12350
F658        F  0.62716130  0.26898038  0.73755382    -0.14710
F659        F  0.60162701  0.15323630  0.85894319    -0.14710
F660        F  0.53201412  0.18859125  0.82588680    -0.12350
C661        C  0.46031002  0.80821421  0.20698281     0.25660
C662        C  0.47163126  0.76744318  0.19248393    -0.22450
C663        C  0.44013385  0.74460672  0.16812116     0.20570
C664        C  0.39940781  0.76208383  0.15882739     0.25600
C665        C  0.39169744  0.80646977  0.16443936    -0.22390
C666        C  0.42123236  0.82701031  0.19418781     0.20510
F667        F  0.41295544  0.86565607  0.21176038    -0.12350
F668        F  0.48740970  0.83038082  0.23371051    -0.14710
F669        F  0.36802308  0.73516619  0.14365995    -0.14710
F670        F  0.44911427  0.70562971  0.15173454    -0.12350
C671        C  0.63270497  0.78942298  0.20213387     0.25660
C672        C  0.63670665  0.80769093  0.15974347    -0.22450
C673        C  0.59903614  0.80478824  0.13340975     0.20570
C674        C  0.56053764  0.78449316  0.14861814     0.25600
C675        C  0.55625426  0.76898669  0.19180442    -0.22390
C676        C  0.59270023  0.77493128  0.21886894     0.20510
F677        F  0.59005068  0.76686565  0.26207314    -0.12350
F678        F  0.66743072  0.78729652  0.22881687    -0.14710
F679        F  0.52763782  0.77862509  0.12015121    -0.14710
F680        F  0.60024325  0.81811416  0.09140749    -0.12350
C681        C  0.20446001  0.92653365  0.71618916     0.25660
C682        C  0.23778170  0.94883133  0.69441021    -0.22450
C683        C  0.25808627  0.92638189  0.66171630     0.20570
C684        C  0.24257727  0.88574625  0.64745312     0.25600
C685        C  0.20389547  0.86509509  0.66420596    -0.22390
C686        C  0.18820767  0.88618039  0.70207995     0.20510
F687        F  0.15248188  0.87222546  0.72284325    -0.12350
F688        F  0.18503609  0.94500315  0.75027667    -0.14710
F689        F  0.26256196  0.87144304  0.61186748    -0.14710
F690        F  0.29225482  0.94507884  0.64134357    -0.12350
C691        C  0.25644801  0.07225602  0.67371857     0.25660
C692        C  0.23437172  0.03388175  0.68759475    -0.22450
C693        C  0.18997111  0.03452825  0.68232492     0.20570
C694        C  0.16937983  0.06720839  0.65943018     0.25600
C695        C  0.18886220  0.10840207  0.65041652    -0.22390
C696        C  0.23369860  0.11007424  0.66087060     0.20510
F697        F  0.25666924  0.14720163  0.65459346    -0.12350
F698        F  0.29994544  0.07389912  0.67331147    -0.14710
F699        F  0.13062348  0.05492919  0.64476458    -0.14710
F700        F  0.16496740  0.00278685  0.69911780    -0.12350
C701        C  0.35282799  0.04247542  0.76567325     0.25660
C702        C  0.30806504  0.03717102  0.75697422    -0.22450
C703        C  0.28331033  0.07409969  0.76411933     0.20570
C704        C  0.30266509  0.11486370  0.77181841     0.25600
C705        C  0.34525370  0.11816209  0.78765101    -0.22390
C706        C  0.37069416  0.08156585  0.78100485     0.20510
F707        F  0.41272543  0.08246839  0.79300539    -0.12350
F708        F  0.38019645  0.00968788  0.76299563    -0.14710
F709        F  0.27765879  0.15003238  0.76944490    -0.14710
F710        F  0.23987422  0.07097226  0.76518226    -0.12350
C711        C  0.34303708  0.93635965  0.73918254     0.25660
C712        C  0.30481286  0.95151524  0.75569222    -0.22450
C713        C  0.28181172  0.92274947  0.78348131     0.20570
C714        C  0.29799199  0.88155121  0.79447723     0.25600
C715        C  0.34234438  0.87407806  0.79043364    -0.22390
C716        C  0.36421756  0.90332323  0.76105480     0.20510
F717        F  0.40742249  0.90408018  0.75675991    -0.12350
F718        F  0.36289500  0.95726064  0.70575949    -0.14710
F719        F  0.27242944  0.85284285  0.81615711    -0.14710
F720        F  0.24506413  0.93515402  0.80213849    -0.12350
C721        C  0.06941711  0.71176669  0.15220834     0.25660
C722        C  0.05454288  0.69913370  0.19340054    -0.22450
C723        C  0.07415206  0.66326756  0.21231143     0.20570
C724        C  0.10757236  0.64188638  0.19101103     0.25600
C725        C  0.13016118  0.65998087  0.15446248    -0.22390
C726        C  0.10547738  0.69282118  0.13313473     0.20510
F727        F  0.11209188  0.70484369  0.09155175    -0.12350
F728        F  0.04748384  0.74169370  0.12914614    -0.14710
F729        F  0.11161148  0.60009652  0.20242984    -0.14710
F730        F  0.05648924  0.64477629  0.24822431    -0.12350
C731        C  0.79038460  0.64452069  0.09237568     0.25660
C732        C  0.83604115  0.64226120  0.09781429    -0.22450
C733        C  0.85941568  0.66849632  0.06696461     0.20570
C734        C  0.83985551  0.68880105  0.03161641     0.25600
C735        C  0.79605195  0.68468428  0.02385474    -0.22390
C736        C  0.77147359  0.66162469  0.05446711     0.20510
F737        F  0.72870266  0.65588084  0.04821403    -0.12350
F738        F  0.76281206  0.63221157  0.12417398    -0.14710
F739        F  0.86436120  0.71497311  0.00592778    -0.14710
F740        F  0.90032241  0.68147245  0.07215113    -0.12350
C741        C  0.97225411  0.66414327  0.16258602     0.25660
C742        C  0.96954199  0.69878325  0.19066507    -0.22450
C743        C  0.92632889  0.71485826  0.19391064     0.20570
C744        C  0.88917864  0.68846541  0.18266023     0.25600
C745        C  0.89408334  0.65151523  0.15711939    -0.22390
C746        C  0.93699916  0.64956886  0.14035128     0.20510
F747        F  0.94657715  0.63276495  0.10152552    -0.12350
F748        F  0.00931923  0.64558895  0.15144855    -0.14710
F749        F  0.84927364  0.70214739  0.19157508    -0.14710
F750        F  0.91956701  0.75714717  0.20059522    -0.12350
C751        C  0.85560591  0.39012416  0.74495191     0.25660
C752        C  0.83451342  0.36387359  0.77738618    -0.22450
C753        C  0.79226042  0.37661870  0.78568096     0.20570
C754        C  0.78086973  0.42010616  0.78075051     0.25600
C755        C  0.80326997  0.44749444  0.75170528    -0.22390
C756        C  0.83859257  0.42983371  0.73066143     0.20510
F757        F  0.85911853  0.45286585  0.69913464    -0.12350
F758        F  0.89267914  0.37837028  0.72648867    -0.14710
F759        F  0.74813520  0.43524591  0.80443026    -0.14710
F760        F  0.76139691  0.34688734  0.79609371    -0.12350
C761        C  0.09176585  0.69159041  0.73356638     0.25660
C762        C  0.05707647  0.70277407  0.76064051    -0.22450
C763        C  0.06306441  0.69742407  0.80548511     0.20570
C764        C  0.09928570  0.67736066  0.82218254     0.25600
C765        C  0.13420230  0.66584437  0.79536280    -0.22390
C766        C  0.13168050  0.67941901  0.75157513     0.20510
F767        F  0.16663900  0.67943577  0.72574993    -0.12350
F768        F  0.08746873  0.69259939  0.68976236    -0.14710
F769        F  0.09825307  0.66667893  0.86481853    -0.14710
F770        F  0.03260146  0.70975002  0.83369437    -0.12350
C771        C  0.14171771  0.29690635  0.99547339     0.25660
C772        C  0.14061637  0.33882411  0.98084368    -0.22450
C773        C  0.17674058  0.36387302  0.99442160     0.20570
C774        C  0.18742175  0.36167858  0.03889876     0.25600
C775        C  0.16909954  0.32764116  0.06445054    -0.22390
C776        C  0.15073390  0.29193134  0.03960103     0.20510
F777        F  0.13643629  0.25447185  0.05808024    -0.12350
F778        F  0.11954374  0.26558308  0.97396687    -0.14710
F779        F  0.21247845  0.39332034  0.05641250    -0.14710
F780        F  0.18925134  0.39937300  0.97166795    -0.12350
C781        C  0.17410918  0.52953776  0.08909423     0.25660
C782        C  0.17336166  0.53836077  0.04426761    -0.22450
C783        C  0.15431594  0.57765553  0.03099073     0.20570
C784        C  0.14055484  0.60705944  0.06116131     0.25600
C785        C  0.14949140  0.60026640  0.10547037    -0.22390
C786        C  0.15471534  0.55716147  0.11755840     0.20510
F787        F  0.14424596  0.54280067  0.15753797    -0.12350
F788        F  0.18918377  0.49182651  0.10458936    -0.14710
F789        F  0.12468832  0.64445272  0.04609412    -0.14710
F790        F  0.14700865  0.58712460  0.98875136    -0.12350
C791        C  0.89866780  0.56367245  0.09207658     0.25660
C792        C  0.88734127  0.57917378  0.13260175    -0.22450
C793        C  0.91276863  0.56533404  0.16971372     0.20570
C794        C  0.95499258  0.55493695  0.16376436     0.25600
C795        C  0.96977801  0.55374597  0.12201639    -0.22390
C796        C  0.94000732  0.54842441  0.08770050     0.20510
F797        F  0.95158594  0.52936230  0.05085270    -0.12350
F798        F  0.87337599  0.56881996  0.05669844    -0.14710
F799        F  0.98249687  0.55352756  0.19812561    -0.14710
F800        F  0.90384709  0.57603138  0.21093315    -0.12350
C801        C  0.89482325  0.34655090  0.88657673     0.25660
C802        C  0.87747375  0.36599199  0.84907722    -0.22450
C803        C  0.86121934  0.40726353  0.85427339     0.20570
C804        C  0.84574759  0.41997496  0.89388858     0.25600
C805        C  0.85410161  0.39543573  0.93148206    -0.22390
C806        C  0.87950860  0.35821224  0.92700212     0.20510
F807        F  0.89002656  0.33284422  0.96142219    -0.12350
F808        F  0.91835082  0.31047976  0.88360939    -0.14710
F809        F  0.82506720  0.45794905  0.89592046    -0.14710
F810        F  0.86068485  0.43563684  0.82150552    -0.12350
C811        C  0.14466186  0.51285376  0.84047191     0.25660
C812        C  0.10177539  0.50719599  0.82725248    -0.22450
C813        C  0.08610412  0.53661513  0.79761936     0.20570
C814        C  0.10454460  0.57782938  0.79571284     0.25600
C815        C  0.14173269  0.58959429  0.82167096    -0.22390
C816        C  0.16190775  0.55460312  0.84306740     0.20510
F817        F  0.19790994  0.56041488  0.86745943    -0.12350
F818        F  0.16360520  0.48174410  0.86429689    -0.14710
F819        F  0.08546449  0.60455340  0.76706993    -0.14710
F820        F  0.04788318  0.52871562  0.77749417    -0.12350
C821        C  0.05601992  0.34763835  0.84392782     0.25660
C822        C  0.05460129  0.36336321  0.88409161    -0.22450
C823        C  0.09006502  0.38691042  0.90055168     0.20570
C824        C  0.12965406  0.38291951  0.87978448     0.25600
C825        C  0.13049280  0.36292066  0.83874188    -0.22390
C826        C  0.08946672  0.36057348  0.81876537     0.20510
F827        F  0.08220546  0.36339319  0.77625778    -0.12350
F828        F  0.02328412  0.32301058  0.82923124    -0.14710
F829        F  0.16295188  0.40654580  0.89468550    -0.14710
F830        F  0.08565234  0.41549567  0.93304597    -0.12350
C831        C  0.86241921  0.46027686  0.10904265     0.25660
C832        C  0.89811004  0.47000856  0.13574050    -0.22450
C833        C  0.89401458  0.45369029  0.17703211     0.20570
C834        C  0.88154031  0.41043657  0.17954335     0.25600
C835        C  0.86241341  0.38847387  0.14216687    -0.22390
C836        C  0.84791562  0.41709455  0.10894487     0.20510
F837        F  0.82576604  0.40419446  0.07375035    -0.12350
F838        F  0.85456212  0.48468232  0.07333806    -0.14710
F839        F  0.89599926  0.38983606  0.21566295    -0.14710
F840        F  0.91736891  0.47140019  0.20987319    -0.12350
C841        C  0.79010903  0.65421105  0.87612196     0.25660
C842        C  0.82793375  0.67464262  0.85800784    -0.22450
C843        C  0.84105664  0.71345933  0.88010537     0.20570
C844        C  0.82277534  0.72539216  0.91968578     0.25600
C845        C  0.79368990  0.69781772  0.94124759    -0.22390
C846        C  0.77752964  0.66227006  0.91877887     0.20510
F847        F  0.74876939  0.63497117  0.93822005    -0.12350
F848        F  0.77011281  0.61973520  0.85792048    -0.14710
F849        F  0.83672986  0.76227600  0.93894332    -0.14710
F850        F  0.87656111  0.73655824  0.86882871    -0.12350
C851        C  0.93459356  0.64009828  0.79414606     0.25660
C852        C  0.89816086  0.66450129  0.80561236    -0.22450
C853        C  0.89945286  0.70796548  0.79158232     0.20570
C854        C  0.93871203  0.72790409  0.77864024     0.25600
C855        C  0.97400573  0.70286336  0.76588948    -0.22390
C856        C  0.96987417  0.65830506  0.77254077     0.20510
F857        F  0.00123144  0.63176825  0.75975641    -0.12350
F858        F  0.93888712  0.59875101  0.80635586    -0.14710
F859        F  0.94124720  0.77153512  0.77691831    -0.14710
F860        F  0.86341379  0.73161209  0.79097460    -0.12350
C861        C  0.80723307  0.60883962  0.78442666     0.25660
C862        C  0.84294932  0.60429329  0.81259782    -0.22450
C863        C  0.85994614  0.56222273  0.81439362     0.20570
C864        C  0.84574447  0.53002994  0.78540168     0.25600
C865        C  0.80548972  0.53193165  0.76389503    -0.22390
C866        C  0.78491155  0.57210033  0.76835768     0.20510
F867        F  0.74215685  0.57580844  0.76304953    -0.12350
F868        F  0.78940317  0.64795622  0.77851838    -0.14710
F869        F  0.87331778  0.49839433  0.77714791    -0.14710
F870        F  0.89086119  0.55136811  0.84347013    -0.12350
C871        C  0.86205607  0.60895840  0.91214851     0.25660
C872        C  0.88643696  0.63246815  0.88077916    -0.22450
C873        C  0.92038780  0.65977579  0.89759478     0.20570
C874        C  0.92833789  0.66232281  0.94207897     0.25600
C875        C  0.90615136  0.63467939  0.97007458    -0.22390
C876        C  0.86593234  0.61927744  0.95591536     0.20510
F877        F  0.83940880  0.59859846  0.98433762    -0.12350
F878        F  0.83098220  0.57993017  0.90055830    -0.14710
F879        F  0.96286246  0.68543708  0.95671913    -0.14710
F880        F  0.94538543  0.68562201  0.87222587    -0.12350
C881        C  0.21546712  0.55489561  0.73379059     0.25660
C882        C  0.24536009  0.53534523  0.76164879    -0.22450
C883        C  0.26097576  0.56052067  0.79624091     0.20570
C884        C  0.24357685  0.60129255  0.80537896     0.25600
C885        C  0.20489728  0.61529105  0.78482971    -0.22390
C886        C  0.19432601  0.59259867  0.74571667     0.20510
F887        F  0.15870727  0.60142455  0.72226515    -0.12350
F888        F  0.20399202  0.53586210  0.69593614    -0.14710
F889        F  0.26071795  0.62287874  0.83959175    -0.14710
F890        F  0.29196960  0.54487330  0.82277586    -0.12350
C891        C  0.19639989  0.44223883  0.75864744     0.25660
C892        C  0.23837201  0.45116625  0.77201245    -0.22450
C893        C  0.26030386  0.41795913  0.79381088     0.20570
C894        C  0.24074594  0.37701073  0.80075834     0.25600
C895        C  0.19617746  0.37017026  0.79345017    -0.22390
C896        C  0.17670830  0.40250967  0.76716013     0.20510
F897        F  0.14008909  0.39558768  0.74505521    -0.12350
F898        F  0.17450484  0.47080482  0.73415151    -0.14710
F899        F  0.26568430  0.34460701  0.81537997    -0.14710
F900        F  0.30088045  0.42508433  0.80847242    -0.12350
C901        C  0.82180333  0.58092616  0.20843411     0.25660
C902        C  0.82259776  0.58828382  0.16318044    -0.22450
C903        C  0.80083035  0.55517635  0.13812972     0.20570
C904        C  0.78508027  0.51626864  0.15633947     0.25600
C905        C  0.79208030  0.50586021  0.19996962    -0.22390
C906        C  0.81162772  0.53900841  0.22556958     0.20510
F907        F  0.82465314  0.52990839  0.26649249    -0.12350
F908        F  0.83745542  0.61174546  0.23552879    -0.14710
F909        F  0.76471926  0.48769858  0.12996043    -0.14710
F910        F  0.79876253  0.55801935  0.09427410    -0.12350
C911        C  0.77551642  0.35212180  0.16397477     0.25660
C912        C  0.81536818  0.33567238  0.17703861    -0.22450
C913        C  0.82360848  0.34896697  0.22034485     0.20570
C914        C  0.81141782  0.39119293  0.23383949     0.25600
C915        C  0.78665559  0.41812847  0.20589764    -0.22390
C916        C  0.76536236  0.39554966  0.17211376     0.20510
F917        F  0.73191611  0.41309101  0.15057689    -0.12350
F918        F  0.74396199  0.32428173  0.15072987    -0.14710
F919        F  0.82871578  0.40734779  0.27086220    -0.14710
F920        F  0.85086986  0.32605510  0.24561756    -0.12350
C921        C  0.08226805  0.23170142  0.65048016     0.25660
C922        C  0.06708386  0.21420566  0.68930535    -0.22450
C923        C  0.09711563  0.19084873  0.71456306     0.20570
C924        C  0.13773861  0.17944640  0.69726849     0.25600
C925        C  0.14588432  0.18484896  0.65210182    -0.22390
C926        C  0.11794218  0.21511637  0.63059245     0.20510
F927        F  0.11729266  0.22115637  0.58699326    -0.12350
F928        F  0.06007167  0.26263205  0.62906625    -0.14710
F929        F  0.16390003  0.15500844  0.72220608    -0.14710
F930        F  0.08631196  0.17667880  0.75482335    -0.12350
C931        C  0.91024488  0.17266410  0.69823946     0.25660
C932        C  0.90671297  0.16009222  0.65440505    -0.22450
C933        C  0.94270094  0.17094884  0.62802203     0.20570
C934        C  0.97812382  0.19376636  0.64384224     0.25600
C935        C  0.98389343  0.20100364  0.68836565    -0.22390
C936        C  0.95049409  0.18611468  0.71601107     0.20510
F937        F  0.95435890  0.19107902  0.75955794    -0.12350
F938        F  0.87481103  0.17415948  0.72341674    -0.14710
F939        F  0.00622143  0.20863644  0.61402956    -0.14710
F940        F  0.94197160  0.16372736  0.58463364    -0.12350
C941        C  0.93276253  0.27472772  0.72913723     0.25660
C942        C  0.97569475  0.28698699  0.74059525    -0.22450
C943        C  0.97647803  0.32627041  0.76214299     0.20570
C944        C  0.94210718  0.33968380  0.78802260     0.25600
C945        C  0.90137880  0.31726360  0.78830348    -0.22390
C946        C  0.89697397  0.28647828  0.75484307     0.20510
F947        F  0.85720079  0.27194630  0.74325917    -0.12350
F948        F  0.92390266  0.26195946  0.68812397    -0.14710
F949        F  0.94779708  0.37840312  0.80737291    -0.14710
F950        F  0.00883201  0.35469899  0.75422324    -0.12350
C951        C  0.07182171  0.26202310  0.79051178     0.25660
C952        C  0.06175362  0.27871320  0.74935941    -0.22450
C953        C  0.09642943  0.29837286  0.72612218     0.20570
C954        C  0.13748248  0.30529676  0.74575307     0.25600
C955        C  0.14283707  0.30038323  0.79125117    -0.22390
C956        C  0.11044299  0.27356268  0.81179535     0.20510
F957        F  0.11070952  0.26710973  0.85539279    -0.12350
F958        F  0.04193783  0.23808575  0.81238385    -0.14710
F959        F  0.16975049  0.32205339  0.72116952    -0.14710
F960        F  0.08971838  0.31470693  0.68583580    -0.12350
C961        C  0.77312041  0.17554701  0.05126010     0.25660
C962        C  0.74822741  0.19843367  0.02070672    -0.22450
C963        C  0.70883019  0.21301216  0.03524619     0.20570
C964        C  0.69290195  0.20117335  0.07644421     0.25600
C965        C  0.71182966  0.16758397  0.10220836    -0.22390
C966        C  0.75571745  0.16184856  0.09187850     0.20510
F967        F  0.78297694  0.14623830  0.12231310    -0.12350
F968        F  0.81427821  0.16627739  0.04189103    -0.14710
F969        F  0.65667367  0.22089609  0.08836045    -0.14710
F970        F  0.68520829  0.23916158  0.00935913    -0.12350
C971        C  0.70329855  0.19940793  0.86497797     0.25660
C972        C  0.69741954  0.15368480  0.85721108    -0.22450
C973        C  0.71540760  0.12850478  0.89218580     0.20570
C974        C  0.73665289  0.14697728  0.92935268     0.25600
C975        C  0.74058966  0.19184027  0.93573180    -0.22390
C976        C  0.72027430  0.21696506  0.90392569     0.20510
F977        F  0.71540778  0.25954263  0.91054164    -0.12350
F978        F  0.69492060  0.22945666  0.83415264    -0.14710
F979        F  0.75476004  0.12014918  0.95891630    -0.14710
F980        F  0.71788024  0.08558760  0.88973429    -0.12350
C981        C  0.86750065  0.29144663  0.06898428     0.25660
C982        C  0.83920032  0.31705544  0.09455657    -0.22450
C983        C  0.79786702  0.32124099  0.07300230     0.20570
C984        C  0.78463801  0.29741059  0.03582798     0.25600
C985        C  0.81178917  0.26986735  0.01367106    -0.22390
C986        C  0.85407554  0.26845264  0.03059348     0.20510
F987        F  0.88326257  0.24475451  0.00962046    -0.12350
F988        F  0.90989174  0.29034368  0.07875066    -0.14710
F989        F  0.74454679  0.30364322  0.01996430    -0.14710
F990        F  0.77002227  0.35219966  0.08275130    -0.12350
C991        C  0.80105403  0.32053700  0.87255562     0.25660
C992        C  0.83155242  0.30300876  0.84262477    -0.22450
C993        C  0.84516054  0.26086360  0.85532713     0.20570
C994        C  0.83334081  0.24125755  0.89619816     0.25600
C995        C  0.80830185  0.26289228  0.92703846    -0.22390
C996        C  0.79211669  0.30229125  0.91347446     0.20510
F997        F  0.76719203  0.32465716  0.94069110    -0.12350
F998        F  0.78544422  0.36048331  0.86793357    -0.14710
F999        F  0.84866912  0.20193414  0.90657588    -0.14710
F1000       F  0.87329864  0.23973403  0.83056053    -0.12350
C1001       C  0.20211014  0.72784073  0.04815301     0.25660
C1002       C  0.22812852  0.70716264  0.01751498    -0.22450
C1003       C  0.24284429  0.66669351  0.02964239     0.20570
C1004       C  0.22628145  0.64486700  0.06619904     0.25600
C1005       C  0.19945039  0.66497635  0.09792732    -0.22390
C1006       C  0.19489737  0.70972838  0.09020093     0.20510
F1007       F  0.18084548  0.73570396  0.12191332    -0.12350
F1008       F  0.18114112  0.76401891  0.03692902    -0.14710
F1009       F  0.23341417  0.60215821  0.06640242    -0.14710
F1010       F  0.26854750  0.64527485  0.00229002    -0.12350
C1011       C  0.19118161  0.66888623  0.93580738     0.25660
C1012       C  0.21755272  0.70645149  0.93197141    -0.22450
C1013       C  0.21739155  0.72440796  0.88952747     0.20570
C1014       C  0.20551690  0.69931541  0.85259416     0.25600
C1015       C  0.18566965  0.65761463  0.85650492    -0.22390
C1016       C  0.17625687  0.64485264  0.89972925     0.20510
F1017       F  0.14798777  0.61211765  0.90784832    -0.12350
F1018       F  0.17387498  0.65867774  0.97442468    -0.14710
F1019       F  0.21087539  0.71731544  0.81266848    -0.14710
F1020       F  0.22557468  0.76709747  0.88356732    -0.12350
C1021       C  0.33981807  0.75615032  0.02961655     0.25660
C1022       C  0.29769600  0.76619708  0.01716900    -0.22450
C1023       C  0.27623861  0.79429053  0.04451411     0.20570
C1024       C  0.29336121  0.80658985  0.08500578     0.25600
C1025       C  0.33825762  0.80447371  0.09438806    -0.22390
C1026       C  0.36019850  0.77581885  0.06601838     0.20510
F1027       F  0.40166451  0.76531132  0.07302061    -0.12350
F1028       F  0.36264651  0.72946838  0.00456337    -0.14710
F1029       F  0.26480767  0.82084019  0.11414209    -0.14710
F1030       F  0.24037939  0.81382308  0.03023262    -0.12350
C1031       C  0.30900127  0.75404680  0.89121005     0.25660
C1032       C  0.30248506  0.77272295  0.93305246    -0.22450
C1033       C  0.32584480  0.81144083  0.93951592     0.20570
C1034       C  0.35407221  0.82705364  0.90868788     0.25600
C1035       C  0.34717760  0.81983512  0.86343761    -0.22390
C1036       C  0.32626132  0.77952644  0.85563389     0.20510
F1037       F  0.32591028  0.76313682  0.81507252    -0.12350
F1038       F  0.30091712  0.71150672  0.88496705    -0.14710
F1039       F  0.38813472  0.85019181  0.92426359    -0.14710
F1040       F  0.32467325  0.83407492  0.97682134    -0.12350
C1041       C  0.16609883  0.39941859  0.14765542     0.25660
C1042       C  0.19392965  0.36446535  0.13968546    -0.22450
C1043       C  0.23392530  0.36878855  0.16142976     0.20570
C1044       C  0.25047992  0.40958805  0.17224181     0.25600
C1045       C  0.22371682  0.44247534  0.18552710    -0.22390
C1046       C  0.17975605  0.43559701  0.17375671     0.20510
F1047       F  0.15022580  0.46425433  0.18592508    -0.12350
F1048       F  0.12510263  0.39756301  0.13269632    -0.14710
F1049       F  0.29081920  0.41928568  0.15958384    -0.14710
F1050       F  0.25874282  0.33442449  0.17028155    -0.12350
C1051       C  0.19431408  0.59839150  0.20909714     0.25660
C1052       C  0.20440980  0.61371006  0.16655556    -0.22450
C1053       C  0.23931292  0.59108327  0.14953958     0.20570
C1054       C  0.24468042  0.54673032  0.15818452     0.25600
C1055       C  0.22698218  0.52747774  0.19563897    -0.22390
C1056       C  0.20447174  0.55557305  0.22307083     0.20510
F1057       F  0.19293472  0.54200990  0.26334259    -0.12350
F1058       F  0.17879207  0.62588238  0.23869135    -0.14710
F1059       F  0.27377322  0.52504251  0.13484510    -0.14710
F1060       F  0.27311420  0.61357512  0.13256219    -0.12350
C1061       C  0.22614789  0.13850805  0.56417535     0.25660
C1062       C  0.19739899  0.16493851  0.58749753    -0.22450
C1063       C  0.19689736  0.20807461  0.57221510     0.20570
C1064       C  0.20866049  0.21772055  0.52952485     0.25600
C1065       C  0.24339889  0.19670944  0.51209048    -0.22390
C1066       C  0.25341078  0.15673653  0.53175114     0.20510
F1067       F  0.28858848  0.13509877  0.51993851    -0.12350
F1068       F  0.22906221  0.09577650  0.57276041    -0.14710
F1069       F  0.19020378  0.25091863  0.50787012    -0.14710
F1070       F  0.19156964  0.24172494  0.59913975    -0.12350
C1071       C  0.24667273  0.15323606  0.41977689     0.25660
C1072       C  0.24454742  0.19737049  0.42983203    -0.22450
C1073       C  0.22651684  0.22436077  0.39783551     0.20570
C1074       C  0.21135426  0.20740564  0.35816575     0.25600
C1075       C  0.20321957  0.16238821  0.35344275    -0.22390
C1076       C  0.22697264  0.13628835  0.38246010     0.20510
F1077       F  0.23100240  0.09347965  0.37550077    -0.12350
F1078       F  0.27003284  0.12614403  0.44438219    -0.14710
F1079       F  0.20520306  0.23554712  0.32487811    -0.14710
F1080       F  0.22573792  0.26755891  0.40378580    -0.12350
C1081       C  0.60477104  0.12069051  0.15678014     0.25660
C1082       C  0.64189690  0.14734447  0.14974307    -0.22450
C1083       C  0.63941535  0.18968146  0.16620501     0.20570
C1084       C  0.59995040  0.20683746  0.17969733     0.25600
C1085       C  0.56270569  0.18041063  0.18601588    -0.22390
C1086       C  0.56660845  0.13665761  0.17472791     0.20510
F1087       F  0.53324261  0.10862148  0.18120116    -0.12350
F1088       F  0.60571957  0.07814594  0.14748637    -0.14710
F1089       F  0.59832616  0.25005161  0.18448705    -0.14710
F1090       F  0.67508275  0.21544214  0.16852266    -0.12350
C1091       C  0.44920533  0.15505664  0.20621886     0.25660
C1092       C  0.47843286  0.18148224  0.18298182    -0.22450
C1093       C  0.46263119  0.20425404  0.14734648     0.20570
C1094       C  0.42018026  0.19822116  0.13319615     0.25600
C1095       C  0.39304305  0.16447428  0.15080596    -0.22390
C1096       C  0.40601947  0.15081266  0.19272102     0.20510
F1097       F  0.37712410  0.13366309  0.22104922    -0.12350
F1098       F  0.46202020  0.13481698  0.24311201    -0.14710
F1099       F  0.40818278  0.22397714  0.09988423    -0.14710
F1100       F  0.48821209  0.23370072  0.12663549    -0.12350
C1101       C  0.09976316  0.28679291  0.20570973     0.25660
C1102       C  0.06142219  0.27362804  0.18350892    -0.22450
C1103       C  0.06126193  0.28022161  0.13901502     0.20570
C1104       C  0.09652749  0.29928538  0.11845892     0.25600
C1105       C  0.13860760  0.30242898  0.13786743    -0.22390
C1106       C  0.13860680  0.29550421  0.18323996     0.20510
F1107       F  0.17503304  0.30242171  0.20671366    -0.12350
F1108       F  0.09892546  0.29641604  0.24828730    -0.14710
F1109       F  0.08637836  0.31734447  0.08043166    -0.14710
F1110       F  0.02518179  0.27211364  0.11520109    -0.12350
C1111       C  0.96290814  0.17258968  0.23624941     0.25660
C1112       C  0.98483581  0.20508288  0.25826529    -0.22450
C1113       C  0.96630328  0.21871957  0.29689368     0.20570
C1114       C  0.93054853  0.19592273  0.31412726     0.25600
C1115       C  0.90139251  0.17113361  0.28724211    -0.22390
C1116       C  0.91967210  0.16300635  0.24564245     0.20510
F1117       F  0.89816932  0.14455108  0.21290429    -0.12350
F1118       F  0.98181051  0.15323985  0.20225193    -0.14710
F1119       F  0.92823207  0.19538814  0.35791035    -0.14710
F1120       F  0.98496035  0.25035436  0.32075442    -0.12350
C1121       C  0.93944449  0.24888573  0.17503542     0.25660
C1122       C  0.97641948  0.27248748  0.19060890    -0.22450
C1123       C  0.97318867  0.31674471  0.18778812     0.20570
C1124       C  0.93794604  0.33584965  0.16792627     0.25600
C1125       C  0.89697849  0.31462372  0.16045622    -0.22390
C1126       C  0.89936993  0.26925249  0.16596321     0.20510
F1127       F  0.86461581  0.24408613  0.15603543    -0.12350
F1128       F  0.94321912  0.20827797  0.16080301    -0.14710
F1129       F  0.94775171  0.37538399  0.15449486    -0.14710
F1130       F  0.00708504  0.34249055  0.19952698    -0.12350
C1131       C  0.08494683  0.22569047  0.29385608     0.25660
C1132       C  0.06869139  0.21083223  0.25416965    -0.22450
C1133       C  0.09641041  0.18573229  0.22902621     0.20570
C1134       C  0.13557207  0.17000820  0.24667965     0.25600
C1135       C  0.14718053  0.17765705  0.29080229    -0.22390
C1136       C  0.12335383  0.21074454  0.31143097     0.20510
F1137       F  0.12925420  0.21988279  0.35403630    -0.12350
F1138       F  0.06321048  0.25475942  0.31692295    -0.14710
F1139       F  0.15878374  0.14332353  0.22209169    -0.14710
F1140       F  0.08422514  0.17391791  0.18846193    -0.12350
C1141       C  0.31337956  0.90732148  0.21748834     0.25660
C1142       C  0.29205289  0.93887345  0.19247958    -0.22450
C1143       C  0.28610340  0.93041650  0.14817384     0.20570
C1144       C  0.30529968  0.89476587  0.12898076     0.25600
C1145       C  0.32723775  0.86292111  0.15434333    -0.22390
C1146       C  0.32475571  0.86755003  0.19974802     0.20510
F1147       F  0.33772285  0.83594744  0.22719042    -0.12350
F1148       F  0.32884521  0.91687230  0.25736238    -0.14710
F1149       F  0.30727727  0.89458466  0.08501606    -0.14710
F1150       F  0.26589376  0.95936316  0.12235496    -0.12350
C1151       C  0.18298964  0.02949382  0.26307858     0.25660
C1152       C  0.22772184  0.02511224  0.25997109    -0.22450
C1153       C  0.25280548  0.06159032  0.27246952     0.20570
C1154       C  0.23379036  0.10013073  0.28685646     0.25600
C1155       C  0.18888910  0.10262491  0.29509693    -0.22390
C1156       C  0.16421485  0.06625584  0.28085346     0.20510
F1157       F  0.12105452  0.06551743  0.28272250    -0.12350
F1158       F  0.15632446  0.99834873  0.24754932    -0.14710
F1159       F  0.26024790  0.13461024  0.29417050    -0.14710
F1160       F  0.29619450  0.05995298  0.27227320    -0.12350
C1161       C  0.27507466  0.05361163  0.16896496     0.25660
C1162       C  0.29848156  0.02180802  0.19085662    -0.22450
C1163       C  0.34303089  0.02766123  0.19323014     0.20570
C1164       C  0.36401505  0.06308749  0.17338641     0.25600
C1165       C  0.34170886  0.09434220  0.14759919    -0.22390
C1166       C  0.29583615  0.08960210  0.14902547     0.20510
F1167       F  0.26987797  0.12029589  0.13263104    -0.12350
F1168       F  0.23169012  0.04985796  0.16646902    -0.14710
F1169       F  0.40686377  0.06625200  0.18101460    -0.14710
F1170       F  0.36680739  0.99919469  0.21624866    -0.12350
C1171       C  0.19698901  0.91704019  0.23645071     0.25660
C1172       C  0.22880676  0.93982334  0.25967981    -0.22450
C1173       C  0.24952135  0.91695719  0.29307071     0.20570
C1174       C  0.24042159  0.87253668  0.29961580     0.25600
C1175       C  0.20026871  0.85414534  0.28774492    -0.22390
C1176       C  0.18087357  0.87683855  0.25162295     0.20510
F1177       F  0.14416705  0.86330713  0.23201877    -0.12350
F1178       F  0.17952319  0.93472591  0.20014014    -0.14710
F1179       F  0.27234081  0.84698062  0.31408156    -0.14710
F1180       F  0.28127611  0.93639207  0.31659237    -0.12350
C1181       C  0.20783323  0.24893391  0.90606308     0.25660
C1182       C  0.23166436  0.27241168  0.93717819    -0.22450
C1183       C  0.23824700  0.31648614  0.92726450     0.20570
C1184       C  0.21915660  0.33637027  0.89075866     0.25600
C1185       C  0.19460093  0.31290503  0.85908913    -0.22390
C1186       C  0.19545740  0.26733848  0.86586702     0.20510
F1187       F  0.18555014  0.23931442  0.83371191    -0.12350
F1188       F  0.19602519  0.20754915  0.91432087    -0.14710
F1189       F  0.23029073  0.37831741  0.88473192    -0.14710
F1190       F  0.26473002  0.34144236  0.95143095    -0.12350
C1191       C  0.29959057  0.14854346  0.01537411     0.25660
C1192       C  0.30281752  0.19369373  0.00887396    -0.22450
C1193       C  0.32104068  0.21720604  0.04384715     0.20570
C1194       C  0.32731051  0.19820156  0.08496866     0.25600
C1195       C  0.33322640  0.15363539  0.08799249    -0.22390
C1196       C  0.31643790  0.12890420  0.05298043     0.20510
F1197       F  0.31869289  0.08529815  0.05411464    -0.12350
F1198       F  0.28243199  0.12220115  0.98519854    -0.14710
F1199       F  0.33247998  0.22379763  0.12009230    -0.14710
F1200       F  0.33730013  0.25735709  0.03717674    -0.12350
C1201       C  0.22254035  0.23385371  0.05227535     0.25660
C1202       C  0.24372490  0.26209801  0.02236499    -0.22450
C1203       C  0.26384672  0.29852146  0.04032613     0.20570
C1204       C  0.25539882  0.31101593  0.08257764     0.25600
C1205       C  0.22003295  0.29173011  0.10608942    -0.22390
C1206       C  0.21251162  0.24799325  0.09487300     0.20510
F1207       F  0.18711815  0.22254633  0.12039643    -0.12350
F1208       F  0.20828078  0.19446087  0.03921925    -0.14710
F1209       F  0.27500128  0.34862496  0.09368463    -0.14710
F1210       F  0.29452066  0.32113703  0.01848446    -0.12350
C1211       C  0.28948841  0.15798272  0.86190690     0.25660
C1212       C  0.32297304  0.18109260  0.83901328    -0.22450
C1213       C  0.32831326  0.22395302  0.85316341     0.20570
C1214       C  0.31786117  0.23531618  0.89625090     0.25600
C1215       C  0.29491458  0.20613334  0.92350868    -0.22390
C1216       C  0.27679755  0.16990604  0.90328514     0.20510
F1217       F  0.24525843  0.14606207  0.92254041    -0.12350
F1218       F  0.27213271  0.12018209  0.84832025    -0.14710
F1219       F  0.32907453  0.27508840  0.91077131    -0.14710
F1220       F  0.34136866  0.25512616  0.82476915    -0.12350
C1221       C  0.62499345  0.66020186  0.71807214     0.25660
C1222       C  0.64250983  0.67834654  0.67913870    -0.22450
C1223       C  0.62407267  0.71850749  0.67004715     0.20570
C1224       C  0.58051505  0.72624645  0.67958479     0.25600
C1225       C  0.55869094  0.70182141  0.71158344    -0.22390
C1226       C  0.58336520  0.67030052  0.73290633     0.20510
F1227       F  0.56802685  0.65034930  0.76908429    -0.12350
F1228       F  0.65066555  0.63809290  0.74567813    -0.14710
F1229       F  0.56104037  0.76001322  0.66017008    -0.14710
F1230       F  0.65075352  0.75354640  0.66706063    -0.12350
C1231       C  0.73368383  0.60816735  0.66133937     0.25660
C1232       C  0.68829655  0.61056256  0.66529173    -0.22450
C1233       C  0.66880407  0.57567997  0.68969587     0.20570
C1234       C  0.69057008  0.53800052  0.70006277     0.25600
C1235       C  0.73414247  0.53390373  0.69119402    -0.22390
C1236       C  0.75584094  0.56991731  0.67240966     0.20510
F1237       F  0.79868127  0.56841672  0.66553458    -0.12350
F1238       F  0.75672141  0.64227222  0.64540031    -0.14710
F1239       F  0.66878627  0.50561712  0.72073252    -0.14710
F1240       F  0.62685033  0.57557351  0.70108704    -0.12350
C1241       C  0.70346951  0.63675603  0.56886180     0.25660
C1242       C  0.68241066  0.66577859  0.59767950    -0.22450
C1243       C  0.67407456  0.70678564  0.57750150     0.20570
C1244       C  0.68819895  0.71825097  0.53582523     0.25600
C1245       C  0.71170890  0.69047299  0.51062358    -0.22390
C1246       C  0.71843973  0.64919141  0.52728692     0.20510
F1247       F  0.74056230  0.62070995  0.50361346    -0.12350
F1248       F  0.70953666  0.59505451  0.57961505    -0.14710
F1249       F  0.67861773  0.75781437  0.51974000    -0.14710
F1250       F  0.64948906  0.73685990  0.59426671    -0.12350
C1251       C  0.41461569  0.28097764  0.64787209     0.25660
C1252       C  0.40078843  0.32459836  0.65509829    -0.22450
C1253       C  0.42993943  0.34734507  0.68407565     0.20570
C1254       C  0.46636751  0.32811678  0.70394964     0.25600
C1255       C  0.48083418  0.28713982  0.69259450    -0.22390
C1256       C  0.45469293  0.26495916  0.66259386     0.20510
F1257       F  0.46724524  0.22638836  0.64775385    -0.12350
F1258       F  0.38892461  0.25109677  0.62835998    -0.14710
F1259       F  0.48628531  0.34983996  0.73645865    -0.14710
F1260       F  0.42257806  0.38748409  0.69822664    -0.12350
C1261       C  0.33710468  0.41475285  0.72417709     0.25660
C1262       C  0.30256299  0.43783394  0.70660564    -0.22450
C1263       C  0.27262486  0.41323596  0.68222340     0.20570
C1264       C  0.28101839  0.37002661  0.67081941     0.25600
C1265       C  0.32274514  0.35218736  0.67666064    -0.22390
C1266       C  0.34241790  0.37071204  0.71380506     0.20510
F1267       F  0.36553686  0.34559221  0.74116554    -0.12350
F1268       F  0.36360363  0.43350590  0.75392324    -0.14710
F1269       F  0.24763383  0.34629398  0.65507240    -0.14710
F1270       F  0.23458081  0.43032579  0.67042895    -0.12350
C1271       C  0.36692636  0.30565325  0.56093310     0.25660
C1272       C  0.34017663  0.30922237  0.59823048    -0.22450
C1273       C  0.30084248  0.28657646  0.59442532     0.20570
C1274       C  0.28437859  0.27676829  0.55251216     0.25600
C1275       C  0.31138215  0.26890266  0.51654697    -0.22390
C1276       C  0.35427999  0.28284617  0.52303851     0.20510
F1277       F  0.38367626  0.27752096  0.49148008    -0.12350
F1278       F  0.40629933  0.32391783  0.56133414    -0.14710
F1279       F  0.24479188  0.29142731  0.54466833    -0.14710
F1280       F  0.27522337  0.28050386  0.62909979    -0.12350
C1281       C  0.68520916  0.35479873  0.25444820     0.25660
C1282       C  0.70016388  0.33905787  0.29500112    -0.22450
C1283       C  0.73316197  0.36503189  0.31463467     0.20570
C1284       C  0.74058061  0.40762315  0.30238395     0.25600
C1285       C  0.72019575  0.42528986  0.26624995    -0.22390
C1286       C  0.69230375  0.39825826  0.24211825     0.20510
F1287       F  0.67240576  0.41368925  0.20613336    -0.12350
F1288       F  0.66400802  0.32846220  0.22632928    -0.14710
F1289       F  0.77066702  0.43059614  0.32469707    -0.14710
F1290       F  0.75926757  0.35050247  0.34620090    -0.12350
C1291       C  0.75980576  0.26208750  0.39183352     0.25660
C1292       C  0.73783985  0.24555951  0.42883434    -0.22450
C1293       C  0.69384249  0.23623594  0.42337451     0.20570
C1294       C  0.67208247  0.24952296  0.38532599     0.25600
C1295       C  0.69453051  0.27097786  0.35049258    -0.22390
C1296       C  0.73913234  0.26674186  0.35127574     0.20510
F1297       F  0.76282096  0.27685366  0.31573568    -0.12350
F1298       F  0.79616118  0.28582975  0.39726249    -0.14710
F1299       F  0.62855875  0.24914528  0.38634146    -0.14710
F1300       F  0.67082568  0.21944055  0.45691803    -0.12350
C1301       C  0.59687912  0.31146493  0.27973820     0.25660
C1302       C  0.63028537  0.28692561  0.29934110    -0.22450
C1303       C  0.62430568  0.24116462  0.29455647     0.20570
C1304       C  0.58587643  0.22245405  0.27802305     0.25600
C1305       C  0.55375908  0.24781500  0.25929396    -0.22390
C1306       C  0.56081027  0.29243933  0.25960720     0.20510
F1307       F  0.53424994  0.31858275  0.23726230    -0.12350
F1308       F  0.60020422  0.35428735  0.27382944    -0.14710
F1309       F  0.58124327  0.17890293  0.27834162    -0.14710
F1310       F  0.65607038  0.21330508  0.30365478    -0.12350
C1311       C  0.40051103  0.65422159  0.25044907     0.25660
C1312       C  0.38487695  0.66859883  0.29181056    -0.22450
C1313       C  0.41037560  0.70470896  0.30806621     0.20570
C1314       C  0.44808742  0.72066956  0.28771377     0.25600
C1315       C  0.46699839  0.69858396  0.25379346    -0.22390
C1316       C  0.44217059  0.66540658  0.23521044     0.20510
F1317       F  0.45891942  0.64204285  0.20276860    -0.12350
F1318       F  0.38036422  0.62287494  0.22761458    -0.14710
F1319       F  0.46928306  0.75507599  0.30519391    -0.14710
F1320       F  0.40420530  0.72156170  0.34764751    -0.12350
C1321       C  0.32231008  0.63318959  0.40407774     0.25660
C1322       C  0.33699630  0.65650144  0.36637016    -0.22450
C1323       C  0.32650721  0.70080251  0.36755909     0.20570
C1324       C  0.31624758  0.72166482  0.40696995     0.25600
C1325       C  0.30440606  0.69822430  0.44502566    -0.22390
C1326       C  0.30625740  0.65334204  0.44152925     0.20510
F1327       F  0.29084059  0.62802056  0.47425062    -0.12350
F1328       F  0.31889305  0.59017263  0.40492833    -0.14710
F1329       F  0.31925971  0.76516136  0.40754011    -0.14710
F1330       F  0.32624680  0.72480696  0.33053332    -0.12350
C1331       C  0.31003361  0.59916805  0.26777284     0.25660
C1332       C  0.33109983  0.59661532  0.30806129    -0.22450
C1333       C  0.33024173  0.55398897  0.32740821     0.20570
C1334       C  0.30837629  0.51863360  0.30824620     0.25600
C1335       C  0.29426111  0.52040678  0.26481845    -0.22390
C1336       C  0.30156167  0.56104594  0.24410590     0.20510
F1337       F  0.31252314  0.56249912  0.20196187    -0.12350
F1338       F  0.30555831  0.63788233  0.24761293    -0.14710
F1339       F  0.30608663  0.48120592  0.33117849    -0.14710
F1340       F  0.35627096  0.54358315  0.36120382    -0.12350
C1341       C  0.66070786  0.68586532  0.37389856     0.25660
C1342       C  0.68554666  0.66133228  0.34494683    -0.22450
C1343       C  0.73036058  0.66770734  0.35068888     0.20570
C1344       C  0.74723457  0.68055337  0.39182385     0.25600
C1345       C  0.71930330  0.69286899  0.42579971    -0.22390
C1346       C  0.67621050  0.69789350  0.41467824     0.20510
F1347       F  0.64954245  0.71817975  0.44191666    -0.12350
F1348       F  0.62495150  0.70594550  0.36040785    -0.14710
F1349       F  0.79008599  0.67819695  0.39906583    -0.14710
F1350       F  0.75764629  0.66013761  0.31773643    -0.12350
C1351       C  0.62522125  0.66022779  0.25350269     0.25660
C1352       C  0.62274938  0.64085863  0.29566609    -0.22450
C1353       C  0.58382596  0.64806376  0.31741299     0.20570
C1354       C  0.55113537  0.67381600  0.29929177     0.25600
C1355       C  0.55078909  0.68726022  0.25543326    -0.22390
C1356       C  0.58856322  0.67785804  0.23222426     0.20510
F1357       F  0.59102221  0.68683945  0.18918923    -0.12350
F1358       F  0.66291232  0.66067193  0.23180644    -0.14710
F1359       F  0.52182597  0.68934141  0.32666713    -0.14710
F1360       F  0.58086708  0.63784953  0.36002542    -0.12350
C1361       C  0.67347267  0.56863260  0.25431034     0.25660
C1362       C  0.69179810  0.59114254  0.29098826    -0.22450
C1363       C  0.72868707  0.57077041  0.30945355     0.20570
C1364       C  0.74084861  0.52959658  0.29753286     0.25600
C1365       C  0.72253525  0.50876745  0.26183848    -0.22390
C1366       C  0.68994618  0.52965836  0.23928202     0.20510
F1367       F  0.67130287  0.51040472  0.20436478    -0.12350
F1368       F  0.63611793  0.57990888  0.23528839    -0.14710
F1369       F  0.77079322  0.50992058  0.32229292    -0.14710
F1370       F  0.74998253  0.58621036  0.34442847    -0.12350
C1371       C  0.33987362  0.37543920  0.23883581     0.25660
C1372       C  0.33119624  0.35223804  0.27771824    -0.22450
C1373       C  0.29314575  0.36755632  0.29831024     0.20570
C1374       C  0.27379188  0.40728868  0.28572978     0.25600
C1375       C  0.29332860  0.43550568  0.25505105    -0.22390
C1376       C  0.32960209  0.41950827  0.23452232     0.20510
F1377       F  0.35098985  0.44438243  0.20497163    -0.12350
F1378       F  0.33979704  0.35336973  0.20119530    -0.14710
F1379       F  0.23699221  0.41894847  0.30509244    -0.14710
F1380       F  0.27220093  0.34348720  0.32866925    -0.12350
C1381       C  0.32362916  0.25967589  0.34941364     0.25660
C1382       C  0.34325780  0.30042821  0.34394792    -0.22450
C1383       C  0.34238961  0.32671732  0.38187969     0.20570
C1384       C  0.32564187  0.31106758  0.42213437     0.25600
C1385       C  0.31486122  0.26687739  0.42870752    -0.22390
C1386       C  0.31959778  0.24102185  0.39128215     0.20510
F1387       F  0.32102135  0.19759132  0.39458301    -0.12350
F1388       F  0.30904133  0.23731190  0.31444408    -0.14710
F1389       F  0.32000793  0.33955242  0.45446706    -0.14710
F1390       F  0.35498582  0.36877277  0.37928532    -0.12350
C1391       C  0.40215680  0.24108927  0.28428288     0.25660
C1392       C  0.38661454  0.28189736  0.26753227    -0.22450
C1393       C  0.41308742  0.29697463  0.23153410     0.20570
C1394       C  0.45207389  0.27805997  0.21976975     0.25600
C1395       C  0.47058075  0.24558565  0.24485623    -0.22390
C1396       C  0.44411891  0.22646730  0.27625865     0.20510
F1397       F  0.45936735  0.19368235  0.30090603    -0.12350
F1398       F  0.38162226  0.21686638  0.31424048    -0.14710
F1399       F  0.47415756  0.29540226  0.18584318    -0.14710
F1400       F  0.40934306  0.33603815  0.21313540    -0.12350
C1401       C  0.73777326  0.40555807  0.61981704     0.25660
C1402       C  0.71074068  0.37359224  0.64080684    -0.22450
C1403       C  0.71133639  0.37751094  0.68651371     0.20570
C1404       C  0.71805465  0.41815724  0.70567061     0.25600
C1405       C  0.74066003  0.45159744  0.68390840    -0.22390
C1406       C  0.75219369  0.44341012  0.64110881     0.20510
F1407       F  0.77795772  0.47208969  0.61960875    -0.12350
F1408       F  0.75606616  0.39921293  0.58121885    -0.14710
F1409       F  0.69935903  0.42528828  0.74421046    -0.14710
F1410       F  0.70075946  0.34364867  0.71278352    -0.12350
C1411       C  0.62576481  0.27260571  0.63995935     0.25660
C1412       C  0.64605890  0.31393880  0.64922767    -0.22450
C1413       C  0.62102268  0.33924799  0.67863908     0.20570
C1414       C  0.58190006  0.32523225  0.69650156     0.25600
C1415       C  0.56370628  0.28496707  0.68699641    -0.22390
C1416       C  0.58609758  0.25894907  0.65840260     0.20510
F1417       F  0.56917536  0.21979766  0.64771881    -0.12350
F1418       F  0.63937585  0.24683114  0.60821793    -0.14710
F1419       F  0.56361513  0.35080383  0.72598683    -0.14710
F1420       F  0.63061964  0.38095005  0.68746133    -0.12350
C1421       C  0.71790108  0.26922968  0.58856002     0.25660
C1422       C  0.70772475  0.31291286  0.58337513    -0.22450
C1423       C  0.72109330  0.33161987  0.54288636     0.20570
C1424       C  0.74392868  0.30832779  0.51188423     0.25600
C1425       C  0.74351012  0.26324292  0.51288116    -0.22390
C1426       C  0.72694631  0.24415828  0.55165120     0.20510
F1427       F  0.71204060  0.20312810  0.55227492    -0.12350
F1428       F  0.71479874  0.24957650  0.62796872    -0.14710
F1429       F  0.76227759  0.32996739  0.47825141    -0.14710
F1430       F  0.70808156  0.37129234  0.53018325    -0.12350
C1431       C  0.57453360  0.56271141  0.62498332     0.25660
C1432       C  0.53708088  0.58762258  0.62343162    -0.22450
C1433       C  0.54193542  0.63202639  0.61589539     0.20570
C1434       C  0.58240601  0.65060064  0.61257787     0.25600
C1435       C  0.61906941  0.62619479  0.62178667    -0.22390
C1436       C  0.61390261  0.58160129  0.61678300     0.20510
F1437       F  0.64702584  0.55532158  0.60899429    -0.12350
F1438       F  0.57365229  0.51937193  0.63081393    -0.14710
F1439       F  0.58503776  0.69126980  0.59696384    -0.14710
F1440       F  0.50760927  0.65654651  0.60655308    -0.12350
C1441       C  0.30369889  0.43165248  0.56263152     0.25660
C1442       C  0.33964188  0.45399717  0.54939138    -0.22450
C1443       C  0.37475259  0.45462156  0.57828931     0.20570
C1444       C  0.38026475  0.42009196  0.60758477     0.25600
C1445       C  0.34974319  0.38584452  0.60963957    -0.22390
C1446       C  0.30985331  0.39445213  0.58683329     0.20510
F1447       F  0.27656755  0.36615703  0.58450287    -0.12350
F1448       F  0.26662296  0.43592998  0.53971359    -0.14710
F1449       F  0.41594156  0.42071913  0.63164244    -0.14710
F1450       F  0.40868584  0.48142331  0.56998944    -0.12350
C1451       C  0.65393694  0.34206361  0.43770295     0.25660
C1452       C  0.61495529  0.36009552  0.43319064    -0.22450
C1453       C  0.60367385  0.38053901  0.39427799     0.20570
C1454       C  0.62673993  0.37144021  0.35712244     0.25600
C1455       C  0.65822605  0.33979961  0.36066420    -0.22390
C1456       C  0.67865570  0.33945093  0.40197814     0.20510
F1457       F  0.72031781  0.33287130  0.40865256    -0.12350
F1458       F  0.66620044  0.32387176  0.47519960    -0.14710
F1459       F  0.62779938  0.40130617  0.32482499    -0.14710
F1460       F  0.57324833  0.41072879  0.39376389    -0.12350
C1461       C  0.43204820  0.63181257  0.36936727     0.25660
C1462       C  0.40397078  0.61262201  0.33875263    -0.22450
C1463       C  0.42318654  0.58589101  0.30681541     0.20570
C1464       C  0.46681462  0.58769516  0.29999347     0.25600
C1465       C  0.49306608  0.59899311  0.33453289    -0.22390
C1466       C  0.47589043  0.62450773  0.36773306     0.20510
F1467       F  0.50125554  0.64052598  0.40003671    -0.12350
F1468       F  0.41775778  0.65884082  0.39996448    -0.14710
F1469       F  0.48308661  0.56549089  0.26635566    -0.14710
F1470       F  0.40029310  0.56244687  0.27749549    -0.12350
C1471       C  0.62087904  0.51457609  0.37485073     0.25660
C1472       C  0.64593801  0.51190569  0.41303907    -0.22450
C1473       C  0.68012917  0.54042968  0.41658817     0.20570
C1474       C  0.67906020  0.57924325  0.39394174     0.25600
C1475       C  0.65185013  0.58612977  0.35675588    -0.22390
C1476       C  0.62474385  0.55034613  0.34645259     0.20510
F1477       F  0.60110435  0.55012823  0.30939069    -0.12350
F1478       F  0.58944025  0.48498181  0.36715837    -0.14710
F1479       F  0.70673758  0.60852884  0.40961416    -0.14710
F1480       F  0.70751737  0.53679078  0.45093683    -0.12350
C1481       C  0.42484258  0.37494300  0.29076394     0.25660
C1482       C  0.40718787  0.33898976  0.31382657    -0.22450
C1483       C  0.43740335  0.31148229  0.33497185     0.20570
C1484       C  0.48078509  0.31501849  0.32444554     0.25600
C1485       C  0.49505925  0.35610485  0.31239890    -0.22390
C1486       C  0.46893291  0.37726690  0.28228475     0.20510
F1487       F  0.48491671  0.41261994  0.26118339    -0.12350
F1488       F  0.40219043  0.41088172  0.28362937    -0.14710
F1489       F  0.50858725  0.28750244  0.34352548    -0.14710
F1490       F  0.42482973  0.27856785  0.36160962    -0.12350
C1491       C  0.61542800  0.33167242  0.56621672     0.25660
C1492       C  0.64432680  0.36055057  0.58790402    -0.22450
C1493       C  0.62666791  0.39922746  0.60167732     0.20570
C1494       C  0.58294968  0.40025493  0.61091105     0.25600
C1495       C  0.55485663  0.36496268  0.60069167    -0.22390
C1496       C  0.57177381  0.33147955  0.57627589     0.20510
F1497       F  0.54630482  0.29854489  0.56179858    -0.12350
F1498       F  0.62987789  0.29758989  0.54403869    -0.14710
F1499       F  0.56918538  0.43488219  0.63275472    -0.14710
F1500       F  0.65194742  0.43298140  0.61423672    -0.12350
C1501       C  0.43786001  0.63832954  0.67347319     0.25660
C1502       C  0.39998446  0.66216018  0.66717612    -0.22450
C1503       C  0.39628290  0.69793146  0.69443462     0.20570
C1504       C  0.43098707  0.71148050  0.72138256     0.25600
C1505       C  0.47333360  0.69601655  0.71562685    -0.22390
C1506       C  0.47394204  0.65541415  0.69563018     0.20510
F1507       F  0.50781244  0.62949849  0.70159768    -0.12350
F1508       F  0.43866718  0.59672305  0.66110041    -0.14710
F1509       F  0.41931753  0.72778958  0.75975481    -0.14710
F1510       F  0.35736684  0.71560061  0.70010034    -0.12350
C1511       C  0.28921566  0.66858510  0.60266364     0.25660
C1512       C  0.33132034  0.67914217  0.61744552    -0.22450
C1513       C  0.34969178  0.71490825  0.59442208     0.20570
C1514       C  0.33864647  0.72277341  0.55027803     0.25600
C1515       C  0.30142445  0.70399868  0.53149422    -0.22390
C1516       C  0.27516126  0.67920480  0.55991137     0.20510
F1517       F  0.23542052  0.66608077  0.54672689    -0.12350
F1518       F  0.26043010  0.65066485  0.63064065    -0.14710
F1519       F  0.36273080  0.75143639  0.52685148    -0.14710
F1520       F  0.38242249  0.73840350  0.61213092    -0.12350
C1521       C  0.30654207  0.57670649  0.64292296     0.25660
C1522       C  0.33714814  0.60508735  0.66394720    -0.22450
C1523       C  0.34936020  0.59190641  0.70678218     0.20570
C1524       C  0.33849184  0.55078509  0.72330485     0.25600
C1525       C  0.31170777  0.52225643  0.70014028    -0.22390
C1526       C  0.29521580  0.53615939  0.66034571     0.20510
F1527       F  0.26797766  0.51004064  0.63762246    -0.12350
F1528       F  0.29191815  0.58413405  0.60206544    -0.14710
F1529       F  0.35357662  0.53908972  0.76300517    -0.14710
F1530       F  0.37158679  0.61824731  0.73400760    -0.12350
C1531       C  0.40604829  0.65270555  0.56913426     0.25660
C1532       C  0.38415173  0.62487952  0.59793608    -0.22450
C1533       C  0.37476951  0.58378901  0.58188756     0.20570
C1534       C  0.36575301  0.57905516  0.53807751     0.25600
C1535       C  0.37766625  0.61191762  0.50873636    -0.22390
C1536       C  0.39680601  0.64994381  0.52524857     0.20510
F1537       F  0.41357103  0.68055075  0.49801815    -0.12350
F1538       F  0.43184717  0.68535884  0.58339109    -0.14710
F1539       F  0.35064914  0.54058933  0.52399540    -0.14710
F1540       F  0.37592665  0.54844054  0.60797006    -0.12350
loop_ 
_geom_bond_atom_site_label_1 
_geom_bond_atom_site_label_2 
_geom_bond_distance 
_geom_bond_site_symmetry_2 
_ccdc_geom_bond_type 
C1         C1502   1.579       .  S
C1         C1512   1.612       .  S
C1         C1522   1.605       .  S
C1         C1532   1.556       .  S
N2            N3   1.304       .  A
N2            N8   1.322       .  A
N2          Mn31   2.164       .  S
N3           C10   1.340       .  A
N4            N6   1.301       .  A
N4            N5   1.308       .  A
N4          Mn20   2.100       .  S
N5           C11   1.349       .  A
N6            N7   1.309       .  A
N6          Mn31   2.125       .  S
N7           C11   1.356       .  A
N8            N9   1.321       .  A
N8          Mn20   2.194       .  S
N9           C10   1.346       .  A
C10        C1442   1.455       .  S
C11        C1485   1.470       .  S
N12          N18   1.313       .  A
N12          N13   1.306       .  A
N12         Mn42   2.107       .  S
N13          C21   1.343       .  A
N14          N15   1.319       .  A
N14          N16   1.296       .  A
N14         Mn20   2.166       .  S
N15          C22   1.363       .  A
N16          N17   1.290       .  A
N16         Mn42   2.068       .  S
N17          C22   1.334       .  A
N18          N19   1.303       .  A
N18         Mn20   2.195       .  S
N19          C21   1.350       .  A
Mn20        Cl44   2.398       .  S
C21        C1465   1.460       .  S
C22        C1535   1.448       .  S
N23          N24   1.302       .  A
N23          N29   1.306       .  A
N23         Mn31   2.070       .  S
N24          C32   1.332       .  A
N25          N27   1.314       .  A
N25          N26   1.310       .  A
N25         Mn43   2.180       .  S
N26          C33   1.334       .  A
N27          N28   1.323       .  A
N27         Mn31   2.192       .  S
N28          C33   1.351       .  A
N29          N30   1.308       .  A
N29         Mn43   2.169       .  S
N30          C32   1.341       .  A
Mn31        Cl44   2.554       .  S
C32        C1452   1.403       .  S
C33        C1495   1.493       .  S
N34          N35   1.305       .  A
N34          N40   1.304       .  A
N34         Mn42   2.112       .  S
N35          C45   1.350       .  A
N36          N37   1.331       .  A
N36          N38   1.305       .  A
N36         Mn43   2.226       .  S
N37          C46   1.352       .  A
N38          N39   1.304       .  A
N38         Mn42   2.100       .  S
N39          C46   1.331       .  A
N40          N41   1.309       .  A
N40         Mn43   2.172       .  S
N41          C45   1.350       .  A
Mn42        Cl44   2.559       .  S
Mn43        Cl44   2.356       .  S
C45        C1432   1.462       .  S
C46        C1472   1.461       .  S
C47        C1402   1.621       .  S
C47        C1412   1.639       .  S
C47        C1422   1.597       .  S
C47        C1492   1.553       .  S
C48        C1372   1.642       .  S
C48        C1382   1.605       .  S
C48        C1392   1.656       .  S
C48        C1482   1.553       .  S
C49        C1342   1.599       .  S
C49        C1352   1.609       .  S
C49        C1362   1.602       .  S
C49        C1475   1.587       .  S
C50        C1312   1.642       .  S
C50        C1322   1.632       .  S
C50        C1332   1.604       .  S
C50        C1462   1.546       .  S
C51        C1282   1.580       .  S
C51        C1295   1.591       .  S
C51        C1302   1.618       .  S
C51        C1455   1.564       .  S
C52        C1252   1.667       .  S
C52        C1265   1.625       .  S
C52        C1272   1.612       .  S
C52        C1445   1.592       .  S
C53        C1222   1.628       .  S
C53        C1232   1.618       .  S
C53        C1242   1.623       .  S
C53        C1435   1.544       .  S
C54          C55   1.385       .  D
C54        C1192   1.546   1_556  S
C54        C1215   1.520       .  S
C55        C1182   1.549       .  S
C55        C1202   1.521   1_556  S
C56          C57   1.392       .  D
C56        C1152   1.550   1_565  S
C56        C1172   1.525       .  S
C57        C1142   1.530       .  S
C57        C1162   1.518   1_565  S
C58          C59   1.379       .  D
C58        C1112   1.512   1_455  S
C58        C1132   1.528       .  S
C59        C1102   1.537       .  S
C59        C1122   1.558   1_455  S
C60          C61   1.392       .  D
C60        C1305   1.520       .  S
C60        C1395   1.543       .  S
C61        C1085   1.552       .  S
C61        C1092   1.505       .  S
C62          C63   1.417       .  D
C62        C1065   1.518       .  S
C62        C1072   1.526       .  S
C63        C1275   1.574       .  S
C63        C1385   1.570       .  S
C64          C65   1.417       .  D
C64        C1335   1.561       .  S
C64        C1375   1.550       .  S
C65        C1045   1.566       .  S
C65        C1055   1.537       .  S
C66          C67   1.415       .  D
C66        C1022   1.547   1_556  S
C66        C1032   1.558       .  S
C67        C1002   1.546   1_556  S
C67        C1012   1.575       .  S
C68          C69   1.408       .  D
C68         C985   1.573   1_556  S
C68         C995   1.547       .  S
C69         C962   1.529   1_556  S
C69         C975   1.563       .  S
C70          C71   1.389       .  D
C70         C942   1.586   1_455  S
C70         C952   1.538       .  S
C71         C922   1.536       .  S
C71         C935   1.519   1_455  S
C72          C73   1.374       .  D
C72        C1285   1.500       .  S
C72        C1365   1.506       .  S
C73         C905   1.546       .  S
C73         C915   1.550       .  S
C74          C75   1.378       .  D
C74         C882   1.538       .  S
C74         C892   1.508       .  S
C75        C1262   1.536       .  S
C75        C1525   1.500       .  S
C76         C842   1.604       .  S
C76         C852   1.584       .  S
C76         C862   1.591       .  S
C76         C872   1.556       .  S
N77          N78   1.294       .  A
N77          N83   1.307       .  A
N77        Mn106   2.109       .  S
N78          C85   1.343       .  A
N79          N81   1.307       .  A
N79          N80   1.296       .  A
N79         Mn95   2.081       .  S
N80          C86   1.335       .  A
N81          N82   1.328       .  A
N81        Mn106   2.211   1_455  S
N82          C86   1.361       .  A
N83          N84   1.323       .  A
N83         Mn95   2.170   1_655  S
N84          C85   1.361       .  A
C85         C875   1.456       .  S
C86         C812   1.452       .  S
N87          N93   1.304   1_554  A
N87          N88   1.309       .  A
N87        Mn117   2.162       .  S
N88          C96   1.352       .  A
N89          N90   1.309       .  A
N89          N91   1.312       .  A
N89         Mn95   2.176   1_554  S
N90          C97   1.345       .  A
N91          N92   1.307       .  A
N91        Mn117   2.121       .  S
N92          C97   1.332       .  A
N93          N94   1.310       .  A
N93         Mn95   2.171       .  S
N94          C96   1.345   1_556  A
Mn95       Cl119   2.490   1_556  S
C96         C782   1.499       .  S
C97         C795   1.446   1_455  S
N98          N99   1.303       .  A
N98         N104   1.314       .  A
N98        Mn106   2.142       .  S
N99         C107   1.334   1_655  A
N100        N102   1.311   1_554  A
N100        N101   1.312       .  A
N100       Mn118   2.169       .  S
N101        C108   1.345   1_554  A
N102        N103   1.308       .  A
N102       Mn106   2.181       .  S
N103        C108   1.348       .  A
N104        N105   1.303       .  A
N104       Mn118   2.089   1_556  S
N105        C107   1.324   1_655  A
Mn106      Cl119   2.458   1_656  S
C107        C822   1.409       .  S
C108        C805   1.482       .  S
N109        N110   1.331   1_455  A
N109        N115   1.315   1_455  A
N109       Mn117   2.191       .  S
N110        C120   1.352       .  A
N111        N112   1.333   1_554  A
N111        N113   1.307       .  A
N111       Mn118   2.174   1_455  S
N112        C121   1.355       .  A
N113        N114   1.290       .  A
N113       Mn117   2.068       .  S
N114        C121   1.324   1_554  A
N115        N116   1.294       .  A
N115       Mn118   2.085       .  S
N116        C120   1.324       .  A
Mn117      Cl119   2.499       .  S
Mn118      Cl119   2.512   1_655  S
C120        C832   1.475       .  S
C121        C772   1.475       .  S
C122        C835   1.584       .  S
C122        C912   1.605       .  S
C122        C982   1.678       .  S
C122       C1125   1.640       .  S
C123        C825   1.576       .  S
C123        C895   1.591       .  S
C123        C955   1.608       .  S
C123       C1185   1.624       .  S
C124        C765   1.574       .  S
C124        C815   1.575       .  S
C124        C885   1.599       .  S
C124       C1015   1.605       .  S
C125        C752   1.608       .  S
C125        C802   1.554       .  S
C125        C945   1.601       .  S
C125        C992   1.640       .  S
C126        C732   1.613       .  S
C126        C745   1.624       .  S
C126        C792   1.549       .  S
C126        C902   1.608       .  S
C127        C128   1.398       .  D
C127        C755   1.528       .  S
C127        C865   1.563       .  S
C128       C1235   1.516       .  S
C128       C1405   1.533       .  S
C129        C725   1.633       .  S
C129        C785   1.556       .  S
C129       C1005   1.635       .  S
C129       C1052   1.635       .  S
C130        C775   1.560       .  S
C130       C1042   1.611       .  S
C130       C1105   1.604       .  S
C130       C1205   1.590       .  S
C131        C132   1.396       .  D
C131        C702   1.551   1_565  S
C131        C712   1.532       .  S
C132        C682   1.540       .  S
C132        C692   1.555   1_565  S
C133        C134   1.408       .  D
C133       C1315   1.540       .  S
C133       C1355   1.563       .  S
C134        C662   1.541       .  S
C134        C675   1.551       .  S
C135        C136   1.411       .  D
C135        C642   1.551       .  S
C135        C652   1.608       .  S
C136       C1255   1.559       .  S
C136       C1415   1.509       .  S
C137        C622   1.622       .  S
C137        C632   1.598       .  S
C137        C655   1.605       .  S
C137        C972   1.665       .  S
N138        N139   1.315       .  A
N138        N144   1.297       .  A
N138       Mn167   2.090   1_556  S
N139        C146   1.356       .  A
N140        N142   1.315       .  A
N140        N141   1.322       .  A
N140       Mn156   2.185       .  S
N141        C147   1.341   1_556  A
N142        N143   1.301   1_556  A
N142       Mn167   2.117   1_556  S
N143        C147   1.335       .  A
N144        N145   1.292       .  A
N144       Mn156   2.160       .  S
N145        C146   1.343       .  A
C146        C582   1.477       .  S
C147        C612   1.455       .  S
N148        N154   1.306       .  A
N148        N149   1.302       .  A
N148       Mn178   2.123       .  S
N149        C157   1.333       .  A
N150        N151   1.309       .  A
N150        N152   1.307   1_565  A
N150       Mn156   2.154       .  S
N151        C158   1.335   1_565  A
N152        N153   1.315       .  A
N152       Mn178   2.174       .  S
N153        C158   1.359       .  A
N154        N155   1.324       .  A
N154       Mn156   2.246   1_545  S
N155        C157   1.359       .  A
Mn156      Cl180   2.330       .  S
C157        C552   1.479       .  S
C158        C635   1.458       .  S
N159        N160   1.310       .  A
N159        N165   1.306       .  A
N159       Mn167   2.141       .  S
N160        C168   1.336       .  A
N161        N163   1.320       .  A
N161        N162   1.323   1_554  A
N161       Mn179   2.176   1_565  S
N162        C169   1.342       .  A
N163        N164   1.315   1_554  A
N163       Mn167   2.197       .  S
N164        C169   1.344       .  A
N165        N166   1.313       .  A
N165       Mn179   2.177   1_565  S
N166        C168   1.354       .  A
Mn167      Cl180   2.546   1_554  S
C168        C572   1.484       .  S
C169        C602   1.472       .  S
N170        N171   1.293       .  A
N170        N176   1.305       .  A
N170       Mn178   2.055       .  S
N171        C181   1.337       .  A
N172        N173   1.307       .  A
N172        N174   1.321       .  A
N172       Mn179   2.214       .  S
N173        C182   1.334       .  A
N174        N175   1.318       .  A
N174       Mn178   2.229   1_554  S
N175        C182   1.357       .  A
N176        N177   1.325       .  A
N176       Mn179   2.194   1_556  S
N177        C181   1.350       .  A
Mn178      Cl180   2.557   1_545  S
Mn179      Cl180   2.408   1_544  S
C181        C592   1.440       .  S
C182        C562   1.482       .  S
C183        C535   1.633       .  S
C183        C542   1.605       .  S
C183        C615   1.574       .  S
C183        C672   1.600       .  S
C184        C522   1.627       .  S
C184        C605   1.582       .  S
C184        C715   1.584       .  S
C184       C1035   1.618       .  S
C185        C595   1.568       .  S
C185        C645   1.654       .  S
C185        C705   1.585       .  S
C185       C1212   1.605       .  S
C186        C492   1.639       .  S
C186        C502   1.582       .  S
C186        C512   1.613       .  S
C186        C585   1.562       .  S
C187        C575   1.574       .  S
C187        C665   1.619       .  S
C187       C1025   1.631       .  S
C187       C1145   1.587       .  S
C188        C189   1.402       .  D
C188        C515   1.527       .  S
C188        C525   1.539       .  S
C189       C1225   1.547       .  S
C189       C1505   1.565       .  S
C190        C565   1.569       .  S
C190       C1095   1.603       .  S
C190       C1165   1.619       .  S
C190       C1195   1.569       .  S
C191        C482   1.624       .  S
C191        C555   1.571       .  S
C191        C965   1.627       .  S
C191       C1082   1.601       .  S
C192        C193   1.390       .  D
C192        C462   1.552       .  S
C192        C472   1.522   1_455  S
C193        C722   1.540       .  S
C193        C742   1.565   1_455  S
C194        C195   1.398       .  D
C194        C442   1.563       .  S
C194        C452   1.529   1_565  S
C195        C485   1.543   1_565  S
C195        C545   1.523       .  S
C196        C197   1.388       .  D
C196       C1292   1.535       .  S
C196       C1425   1.551       .  S
C197        C425   1.524       .  S
C197        C432   1.506       .  S
C198        C199   1.394       .  D
C198       C1325   1.557       .  S
C198       C1515   1.539       .  S
C199        C405   1.524       .  S
C199        C412   1.545       .  S
C200        C392   1.538       .  S
C200        C422   1.637       .  S
C200        C455   1.630       .  S
C200       C1115   1.617       .  S
N201        N202   1.309       .  A
N201        N207   1.315       .  A
N201       Mn230   2.145   1_655  S
N202        C209   1.351       .  A
N203        N205   1.310       .  A
N203        N204   1.323       .  A
N203       Mn219   2.152       .  S
N204        C210   1.343   1_655  A
N205        N206   1.294   1_655  A
N205       Mn230   2.119   1_645  S
N206        C210   1.337       .  A
N207        N208   1.310       .  A
N207       Mn219   2.174   1_565  S
N208        C209   1.339       .  A
C209        C395   1.462   1_565  S
C210        C335   1.444       .  S
N211        N217   1.302       .  A
N211        N212   1.293   1_655  A
N211       Mn241   2.078   1_645  S
N212        C220   1.334       .  A
N213        N214   1.306       .  A
N213        N215   1.312       .  A
N213       Mn219   2.154   1_565  S
N214        C221   1.339       .  A
N215        N216   1.308       .  A
N215       Mn241   2.147   1_655  S
N216        C221   1.348       .  A
N217        N218   1.328       .  A
N217       Mn219   2.207       .  S
N218        C220   1.361   1_655  A
Mn219      Cl243   2.380   1_645  S
C220        C322   1.454       .  S
C221        C352   1.480   1_565  S
N222        N223   1.313       .  A
N222        N228   1.314   1_545  A
N222       Mn230   2.165   1_545  S
N223        C231   1.349   1_545  A
N224        N226   1.307       .  A
N224        N225   1.312       .  A
N224       Mn242   2.142       .  S
N225        C232   1.341       .  A
N226        N227   1.310       .  A
N226       Mn230   2.177       .  S
N227        C232   1.356       .  A
N228        N229   1.308       .  A
N228       Mn242   2.203       .  S
N229        C231   1.349       .  A
Mn230      Cl243   2.558       .  S
C231        C375   1.494       .  S
C232        C382   1.453   1_455  S
N233        N234   1.310       .  A
N233        N239   1.316       .  A
N233       Mn241   2.132       .  S
N234        C244   1.332   1_455  A
N235        N236   1.307       .  A
N235        N237   1.299       .  A
N235       Mn242   2.126       .  S
N236        C245   1.350   1_565  A
N237        N238   1.307   1_565  A
N237       Mn241   2.132       .  S
N238        C245   1.355       .  A
N239        N240   1.333       .  A
N239       Mn242   2.269       .  S
N240        C244   1.356   1_455  A
Mn241      Cl243   2.556       .  S
Mn242      Cl243   2.394       .  S
C244        C345   1.482       .  S
C245        C365   1.482   1_545  S
C246        C312   1.612       .  S
C246        C385   1.549       .  S
C246        C445   1.653       .  S
C246        C475   1.598       .  S
C247        C372   1.559       .  S
C247        C402   1.636       .  S
C247        C465   1.593       .  S
C247       C1175   1.620       .  S
C248        C305   1.603       .  S
C248        C362   1.543       .  S
C248        C415   1.597       .  S
C248        C685   1.630       .  S
C249        C295   1.627       .  S
C249        C355   1.547       .  S
C249        C435   1.610       .  S
C249        C932   1.582       .  S
C250        C262   1.602       .  S
C250        C272   1.652       .  S
C250        C282   1.611       .  S
C250        C342   1.577       .  S
C251        C252   1.368       .  D
C251        C285   1.538       .  S
C251        C315   1.515       .  S
C252       C1245   1.516       .  S
C252       C1345   1.516       .  S
C253        C332   1.597       .  S
C253       C1075   1.596       .  S
C253       C1135   1.603       .  S
C253       C1155   1.609       .  S
C254        C325   1.575       .  S
C254        C695   1.625       .  S
C254        C925   1.607       .  S
C254       C1062   1.599       .  S
C255        C256   1.391       .  D
C255        C762   1.529       .  S
C255        C855   1.535   1_455  S
C256        C265   1.544   1_455  S
C256        C302   1.560       .  S
C257        C258   1.393       .  D
C257        C495   1.524       .  S
C257        C625   1.568   1_565  S
C258        C275   1.566       .  S
C258        C292   1.505   1_565  S
C259        C260   1.377       .  D
C259        C735   1.506   1_556  S
C259        C845   1.510       .  S
C260        C505   1.533       .  S
C260        C532   1.528   1_556  S
C261        C262   1.412       .  A
C261        C266   1.428       .  A
C261        F268   1.354       .  S
C262        C263   1.444       .  A
C263        C264   1.385       .  A
C263        F270   1.353       .  S
C264        C265   1.393       .  A
C264        F269   1.359       .  S
C265        C266   1.435       .  A
C266        F267   1.356       .  S
C271        C272   1.444       .  A
C271        C276   1.439       .  A
C271        F278   1.357       .  S
C272        C273   1.433       .  A
C273        C274   1.415       .  A
C273        F280   1.328       .  S
C274        C275   1.403       .  A
C274        F279   1.354       .  S
C275        C276   1.420       .  A
C276        F277   1.353       .  S
C281        C282   1.434       .  A
C281        C286   1.418       .  A
C281        F288   1.346       .  S
C282        C283   1.443       .  A
C283        C284   1.407       .  A
C283        F290   1.355       .  S
C284        C285   1.394       .  A
C284        F289   1.358       .  S
C285        C286   1.411       .  A
C286        F287   1.357       .  S
C291        C292   1.397       .  A
C291        C296   1.408       .  A
C291        F298   1.358       .  S
C292        C293   1.380       .  A
C293        C294   1.397       .  A
C293        F300   1.359       .  S
C294        C295   1.457       .  A
C294        F299   1.350       .  S
C295        C296   1.444       .  A
C296        F297   1.346       .  S
C301        C302   1.408       .  A
C301        C306   1.405       .  A
C301        F308   1.357       .  S
C302        C303   1.428       .  A
C303        C304   1.422       .  A
C303        F310   1.356       .  S
C304        C305   1.415       .  A
C304        F309   1.358       .  S
C305        C306   1.434       .  A
C306        F307   1.352       .  S
C311        C312   1.455       .  A
C311        C316   1.356       .  A
C311        F318   1.351       .  S
C312        C313   1.418       .  A
C313        C314   1.434       .  A
C313        F320   1.357       .  S
C314        C315   1.434       .  A
C314        F319   1.355       .  S
C315        C316   1.374       .  A
C316        F317   1.359       .  S
C321        C322   1.391       .  A
C321        C326   1.366       .  A
C321        F328   1.358       .  S
C322        C323   1.398       .  A
C323        C324   1.409       .  A
C323        F330   1.353       .  S
C324        C325   1.427       .  A
C324        F329   1.354       .  S
C325        C326   1.434       .  A
C326        F327   1.358       .  S
C331        C332   1.423       .  A
C331        C336   1.384       .  A
C331        F338   1.352       .  S
C332        C333   1.430       .  A
C333        C334   1.410       .  A
C333        F340   1.348       .  S
C334        C335   1.414       .  A
C334        F339   1.357       .  S
C335        C336   1.377       .  A
C336        F337   1.353       .  S
C341        C342   1.394       .  A
C341        C346   1.405       .  A
C341        F348   1.349       .  S
C342        C343   1.449       .  A
C343        C344   1.394       .  A
C343        F350   1.350       .  S
C344        C345   1.381       .  A
C344        F349   1.358       .  S
C345        C346   1.415       .  A
C346        F347   1.341       .  S
C351        C352   1.412       .  A
C351        C356   1.380       .  A
C351        F358   1.358   1_545  S
C352        C353   1.420       .  A
C353        C354   1.387       .  A
C353        F360   1.360       .  S
C354        C355   1.400       .  A
C354        F359   1.351       .  S
C355        C356   1.416       .  A
C356        F357   1.355       .  S
C361        C362   1.423       .  A
C361        C366   1.392       .  A
C361        F368   1.357       .  S
C362        C363   1.420       .  A
C363        C364   1.377       .  A
C363        F370   1.356       .  S
C364        C365   1.410       .  A
C364        F369   1.360       .  S
C365        C366   1.405       .  A
C366        F367   1.360       .  S
C371        C372   1.391       .  A
C371        C376   1.385       .  A
C371        F378   1.358       .  S
C372        C373   1.410       .  A
C373        C374   1.400       .  A
C373        F380   1.357       .  S
C374        C375   1.426       .  A
C374        F379   1.358       .  S
C375        C376   1.413       .  A
C376        F377   1.360       .  S
C381        C382   1.402       .  A
C381        C386   1.389       .  A
C381        F388   1.345       .  S
C382        C383   1.365       .  A
C383        C384   1.379       .  A
C383        F390   1.354   1_655  S
C384        C385   1.458       .  A
C384        F389   1.357       .  S
C385        C386   1.378       .  A
C386        F387   1.335       .  S
C391        C392   1.387       .  A
C391        C396   1.372       .  A
C391        F398   1.359       .  S
C392        C393   1.415       .  A
C393        C394   1.378       .  A
C393        F400   1.349       .  S
C394        C395   1.397       .  A
C394        F399   1.358   1_545  S
C395        C396   1.433       .  A
C396        F397   1.361       .  S
C401        C402   1.435       .  A
C401        C406   1.426       .  A
C401        F408   1.355       .  S
C402        C403   1.448       .  A
C403        C404   1.401       .  A
C403        F410   1.353       .  S
C404        C405   1.390       .  A
C404        F409   1.359       .  S
C405        C406   1.411       .  A
C406        F407   1.357       .  S
C411        C412   1.403       .  A
C411        C416   1.407       .  A
C411        F418   1.358       .  S
C412        C413   1.420       .  A
C413        C414   1.414       .  A
C413        F420   1.348       .  S
C414        C415   1.411       .  A
C414        F419   1.358       .  S
C415        C416   1.434       .  A
C416        F417   1.341       .  S
C421        C422   1.421       .  A
C421        C426   1.420       .  A
C421        F428   1.357       .  S
C422        C423   1.453       .  A
C423        C424   1.407       .  A
C423        F430   1.353       .  S
C424        C425   1.392       .  A
C424        F429   1.356       .  S
C425        C426   1.409       .  A
C426        F427   1.358       .  S
C431        C432   1.404       .  A
C431        C436   1.406       .  A
C431        F438   1.357       .  S
C432        C433   1.401       .  A
C433        C434   1.414       .  A
C433        F440   1.357       .  S
C434        C435   1.436       .  A
C434        F439   1.354       .  S
C435        C436   1.406       .  A
C436        F437   1.358       .  S
C441        C442   1.399       .  A
C441        C446   1.415       .  A
C441        F448   1.356       .  S
C442        C443   1.422       .  A
C443        C444   1.447       .  A
C443        F450   1.356       .  S
C444        C445   1.440       .  A
C444        F449   1.356       .  S
C445        C446   1.442       .  A
C446        F447   1.355       .  S
C451        C452   1.415       .  A
C451        C456   1.420       .  A
C451        F458   1.356       .  S
C452        C453   1.410       .  A
C453        C454   1.422       .  A
C453        F460   1.356       .  S
C454        C455   1.420       .  A
C454        F459   1.358       .  S
C455        C456   1.418       .  A
C456        F457   1.357       .  S
C461        C462   1.419       .  A
C461        C466   1.415       .  A
C461        F468   1.351       .  S
C462        C463   1.406       .  A
C463        C464   1.419       .  A
C463        F470   1.349       .  S
C464        C465   1.426       .  A
C464        F469   1.357       .  S
C465        C466   1.412       .  A
C466        F467   1.358       .  S
C471        C472   1.393       .  A
C471        C476   1.394       .  A
C471        F478   1.359   1_655  S
C472        C473   1.426       .  A
C473        C474   1.432       .  A
C473        F480   1.357       .  S
C474        C475   1.419       .  A
C474        F479   1.357       .  S
C475        C476   1.449       .  A
C476        F477   1.360       .  S
C481        C482   1.441       .  A
C481        C486   1.418       .  A
C481        F488   1.357       .  S
C482        C483   1.432       .  A
C483        C484   1.421       .  A
C483        F490   1.355       .  S
C484        C485   1.411       .  A
C484        F489   1.355       .  S
C485        C486   1.404       .  A
C486        F487   1.358       .  S
C491        C492   1.448       .  A
C491        C496   1.408       .  A
C491        F498   1.354       .  S
C492        C493   1.435       .  A
C493        C494   1.426       .  A
C493        F500   1.355       .  S
C494        C495   1.412       .  A
C494        F499   1.357       .  S
C495        C496   1.393       .  A
C496        F497   1.359       .  S
C501        C502   1.430       .  A
C501        C506   1.421       .  A
C501        F508   1.357       .  S
C502        C503   1.407       .  A
C503        C504   1.404       .  A
C503        F510   1.358       .  S
C504        C505   1.411       .  A
C504        F509   1.353       .  S
C505        C506   1.411       .  A
C506        F507   1.352       .  S
C511        C512   1.443       .  A
C511        C516   1.404       .  A
C511        F518   1.353       .  S
C512        C513   1.415       .  A
C513        C514   1.418       .  A
C513        F520   1.357       .  S
C514        C515   1.416       .  A
C514        F519   1.354       .  S
C515        C516   1.399       .  A
C516        F517   1.357       .  S
C521        C522   1.427       .  A
C521        C526   1.423       .  A
C521        F528   1.350       .  S
C522        C523   1.441       .  A
C523        C524   1.422       .  A
C523        F530   1.356       .  S
C524        C525   1.407       .  A
C524        F529   1.358       .  S
C525        C526   1.411       .  A
C526        F527   1.354       .  S
C531        C532   1.406       .  A
C531        C536   1.420       .  A
C531        F538   1.357       .  S
C532        C533   1.401       .  A
C533        C534   1.416       .  A
C533        F540   1.359       .  S
C534        C535   1.454       .  A
C534        F539   1.351       .  S
C535        C536   1.437       .  A
C536        F537   1.354       .  S
C541        C542   1.403       .  A
C541        C546   1.409       .  A
C541        F548   1.357       .  S
C542        C543   1.438       .  A
C543        C544   1.414       .  A
C543        F550   1.356       .  S
C544        C545   1.403       .  A
C544        F549   1.357       .  S
C545        C546   1.411       .  A
C546        F547   1.349       .  S
C551        C552   1.398   1_554  A
C551        C556   1.398       .  A
C551        F558   1.350       .  S
C552        C553   1.415   1_556  A
C553        C554   1.384       .  A
C553        F560   1.360   1_554  S
C554        C555   1.403       .  A
C554        F559   1.353       .  S
C555        C556   1.413       .  A
C556        F557   1.352       .  S
C561        C562   1.427       .  A
C561        C566   1.389       .  A
C561        F568   1.357       .  S
C562        C563   1.393       .  A
C563        C564   1.389       .  A
C563        F570   1.359       .  S
C564        C565   1.426       .  A
C564        F569   1.345       .  S
C565        C566   1.392       .  A
C566        F567   1.357       .  S
C571        C572   1.393       .  A
C571        C576   1.384       .  A
C571        F578   1.360       .  S
C572        C573   1.427       .  A
C573        C574   1.392       .  A
C573        F580   1.358       .  S
C574        C575   1.399       .  A
C574        F579   1.354       .  S
C575        C576   1.435       .  A
C576        F577   1.349       .  S
C581        C582   1.408       .  A
C581        C586   1.383       .  A
C581        F588   1.362       .  S
C582        C583   1.411       .  A
C583        C584   1.404       .  A
C583        F590   1.358       .  S
C584        C585   1.434       .  A
C584        F589   1.352       .  S
C585        C586   1.385       .  A
C586        F587   1.349       .  S
C591        C592   1.401       .  A
C591        C596   1.391       .  A
C591        F598   1.354       .  S
C592        C593   1.388       .  A
C593        C594   1.396       .  A
C593        F600   1.359       .  S
C594        C595   1.445       .  A
C594        F599   1.354       .  S
C595        C596   1.405       .  A
C596        F597   1.355       .  S
C601        C602   1.404       .  A
C601        C606   1.408       .  A
C601        F608   1.345       .  S
C602        C603   1.377       .  A
C603        C604   1.392       .  A
C603        F610   1.359       .  S
C604        C605   1.454       .  A
C604        F609   1.351       .  S
C605        C606   1.400       .  A
C606        F607   1.351       .  S
C611        C612   1.408       .  A
C611        C616   1.405       .  A
C611        F618   1.355       .  S
C612        C613   1.368       .  A
C613        C614   1.384       .  A
C613        F620   1.357       .  S
C614        C615   1.423       .  A
C614        F619   1.351       .  S
C615        C616   1.422       .  A
C616        F617   1.351       .  S
C621        C622   1.432       .  A
C621        C626   1.433       .  A
C621        F628   1.353       .  S
C622        C623   1.430       .  A
C623        C624   1.429       .  A
C623        F630   1.355       .  S
C624        C625   1.412       .  A
C624        F629   1.357       .  S
C625        C626   1.422       .  A
C626        F627   1.356       .  S
C631        C632   1.469       .  A
C631        C636   1.376       .  A
C631        F638   1.354       .  S
C632        C633   1.406       .  A
C633        C634   1.391       .  A
C633        F640   1.341       .  S
C634        C635   1.416       .  A
C634        F639   1.350   1_545  S
C635        C636   1.365       .  A
C636        F637   1.359       .  S
C641        C642   1.408       .  A
C641        C646   1.425       .  A
C641        F648   1.356       .  S
C642        C643   1.404       .  A
C643        C644   1.425       .  A
C643        F650   1.358       .  S
C644        C645   1.450       .  A
C644        F649   1.354       .  S
C645        C646   1.441       .  A
C646        F647   1.354       .  S
C651        C652   1.453       .  A
C651        C656   1.426       .  A
C651        F658   1.337       .  S
C652        C653   1.422       .  A
C653        C654   1.418       .  A
C653        F660   1.354       .  S
C654        C655   1.436       .  A
C654        F659   1.359       .  S
C655        C656   1.400       .  A
C656        F657   1.357       .  S
C661        C662   1.402       .  A
C661        C666   1.415       .  A
C661        F668   1.357       .  S
C662        C663   1.415       .  A
C663        C664   1.419       .  A
C663        F670   1.354       .  S
C664        C665   1.418       .  A
C664        F669   1.357       .  S
C665        C666   1.439       .  A
C666        F667   1.354       .  S
C671        C672   1.425       .  A
C671        C676   1.417       .  A
C671        F678   1.357       .  S
C672        C673   1.425       .  A
C673        C674   1.424       .  A
C673        F680   1.357       .  S
C674        C675   1.418       .  A
C674        F679   1.355       .  S
C675        C676   1.415       .  A
C676        F677   1.356       .  S
C681        C682   1.407       .  A
C681        C686   1.413       .  A
C681        F688   1.357       .  S
C682        C683   1.397       .  A
C683        C684   1.415       .  A
C683        F690   1.358       .  S
C684        C685   1.450       .  A
C684        F689   1.351       .  S
C685        C686   1.440       .  A
C686        F687   1.351       .  S
C691        C692   1.427       .  A
C691        C696   1.437       .  A
C691        F698   1.357       .  S
C692        C693   1.394       .  A
C693        C694   1.396       .  A
C693        F700   1.346       .  S
C694        C695   1.430       .  A
C694        F699   1.336       .  S
C695        C696   1.433       .  A
C696        F697   1.357       .  S
C701        C702   1.426       .  A
C701        C706   1.410       .  A
C701        F708   1.348       .  S
C702        C703   1.418       .  A
C703        C704   1.412       .  A
C703        F710   1.357       .  S
C704        C705   1.414       .  A
C704        F709   1.358       .  S
C705        C706   1.419       .  A
C706        F707   1.359       .  S
C711        C712   1.394       .  A
C711        C716   1.398       .  A
C711        F718   1.359       .  S
C712        C713   1.419       .  A
C713        C714   1.423       .  A
C713        F720   1.353       .  S
C714        C715   1.415       .  A
C714        F719   1.358       .  S
C715        C716   1.441       .  A
C716        F717   1.355       .  S
C721        C722   1.405       .  A
C721        C726   1.417       .  A
C721        F728   1.359       .  S
C722        C723   1.403       .  A
C723        C724   1.419       .  A
C723        F730   1.358       .  S
C724        C725   1.437       .  A
C724        F729   1.350       .  S
C725        C726   1.442       .  A
C726        F727   1.348       .  S
C731        C732   1.436       .  A
C731        C736   1.410       .  A
C731        F738   1.356       .  S
C732        C733   1.439       .  A
C733        C734   1.397       .  A
C733        F740   1.338       .  S
C734        C735   1.389       .  A
C734        F739   1.357       .  S
C735        C736   1.402       .  A
C736        F737   1.355       .  S
C741        C742   1.393       .  A
C741        C746   1.362       .  A
C741        F748   1.352   1_655  S
C742        C743   1.453       .  A
C743        C744   1.446       .  A
C743        F750   1.354       .  S
C744        C745   1.411       .  A
C744        F749   1.356       .  S
C745        C746   1.442       .  A
C746        F747   1.350       .  S
C751        C752   1.438       .  A
C751        C756   1.419       .  A
C751        F758   1.353       .  S
C752        C753   1.411       .  A
C753        C754   1.411       .  A
C753        F760   1.357       .  S
C754        C755   1.408       .  A
C754        F759   1.356       .  S
C755        C756   1.409       .  A
C756        F757   1.358       .  S
C761        C762   1.424       .  A
C761        C766   1.417       .  A
C761        F768   1.357       .  S
C762        C763   1.403       .  A
C763        C764   1.395       .  A
C763        F770   1.358       .  S
C764        C765   1.428       .  A
C764        F769   1.354       .  S
C765        C766   1.413       .  A
C766        F767   1.356       .  S
C771        C772   1.375       .  A
C771        C776   1.395   1_556  A
C771        F778   1.357       .  S
C772        C773   1.418       .  A
C773        C774   1.410   1_556  A
C773        F780   1.353       .  S
C774        C775   1.424       .  A
C774        F779   1.356       .  S
C775        C776   1.459       .  A
C776        F777   1.358       .  S
C781        C782   1.407       .  A
C781        C786   1.387       .  A
C781        F788   1.354       .  S
C782        C783   1.425       .  A
C783        C784   1.389       .  A
C783        F790   1.351   1_554  S
C784        C785   1.407       .  A
C784        F789   1.350       .  S
C785        C786   1.399       .  A
C786        F787   1.347       .  S
C791        C792   1.396       .  A
C791        C796   1.392       .  A
C791        F798   1.351       .  S
C792        C793   1.454       .  A
C793        C794   1.378       .  A
C793        F800   1.351       .  S
C794        C795   1.373       .  A
C794        F799   1.359       .  S
C795        C796   1.411       .  A
C796        F797   1.343       .  S
C801        C802   1.409       .  A
C801        C806   1.394       .  A
C801        F808   1.358       .  S
C802        C803   1.401       .  A
C803        C804   1.383       .  A
C803        F810   1.334       .  S
C804        C805   1.407       .  A
C804        F809   1.360       .  S
C805        C806   1.426       .  A
C806        F807   1.358       .  S
C811        C812   1.403       .  A
C811        C816   1.396       .  A
C811        F818   1.352       .  S
C812        C813   1.380       .  A
C813        C814   1.393       .  A
C813        F820   1.358       .  S
C814        C815   1.446       .  A
C814        F819   1.350       .  S
C815        C816   1.422       .  A
C816        F817   1.356       .  S
C821        C822   1.338       .  A
C821        C826   1.357       .  A
C821        F828   1.341       .  S
C822        C823   1.407       .  A
C823        C824   1.405       .  A
C823        F830   1.356       .  S
C824        C825   1.417       .  A
C824        F829   1.339       .  S
C825        C826   1.416       .  A
C826        F827   1.331       .  S
C831        C832   1.408       .  A
C831        C836   1.406       .  A
C831        F838   1.354       .  S
C832        C833   1.372       .  A
C833        C834   1.392       .  A
C833        F840   1.357       .  S
C834        C835   1.462       .  A
C834        F839   1.358       .  S
C835        C836   1.427       .  A
C836        F837   1.342       .  S
C841        C842   1.441       .  A
C841        C846   1.403       .  A
C841        F848   1.352       .  S
C842        C843   1.441       .  A
C843        C844   1.409       .  A
C843        F850   1.352       .  S
C844        C845   1.401       .  A
C844        F849   1.358       .  S
C845        C846   1.393       .  A
C846        F847   1.359       .  S
C851        C852   1.430       .  A
C851        C856   1.397       .  A
C851        F858   1.344       .  S
C852        C853   1.414       .  A
C853        C854   1.418       .  A
C853        F860   1.357       .  S
C854        C855   1.423       .  A
C854        F859   1.357       .  S
C855        C856   1.401       .  A
C856        F857   1.358   1_655  S
C861        C862   1.416       .  A
C861        C866   1.416       .  A
C861        F868   1.358       .  S
C862        C863   1.422       .  A
C863        C864   1.410       .  A
C863        F870   1.357       .  S
C864        C865   1.417       .  A
C864        F869   1.349       .  S
C865        C866   1.425       .  A
C866        F867   1.350       .  S
C871        C872   1.421       .  A
C871        C876   1.395       .  A
C871        F878   1.357       .  S
C872        C873   1.439       .  A
C873        C874   1.395       .  A
C873        F880   1.354       .  S
C874        C875   1.389       .  A
C874        F879   1.358       .  S
C875        C876   1.401       .  A
C876        F877   1.357       .  S
C881        C882   1.407       .  A
C881        C886   1.411       .  A
C881        F888   1.356       .  S
C882        C883   1.407       .  A
C883        C884   1.422       .  A
C883        F890   1.357       .  S
C884        C885   1.433       .  A
C884        F889   1.356       .  S
C885        C886   1.436       .  A
C886        F887   1.352       .  S
C891        C892   1.392       .  A
C891        C896   1.390       .  A
C891        F898   1.353       .  S
C892        C893   1.412       .  A
C893        C894   1.414       .  A
C893        F900   1.355       .  S
C894        C895   1.418       .  A
C894        F899   1.357       .  S
C895        C896   1.428       .  A
C896        F897   1.340       .  S
C901        C902   1.413       .  A
C901        C906   1.430       .  A
C901        F908   1.358       .  S
C902        C903   1.447       .  A
C903        C904   1.408       .  A
C903        F910   1.356       .  S
C904        C905   1.397       .  A
C904        F909   1.355       .  S
C905        C906   1.427       .  A
C906        F907   1.352       .  S
C911        C912   1.409       .  A
C911        C916   1.419       .  A
C911        F918   1.359       .  S
C912        C913   1.422       .  A
C913        C914   1.441       .  A
C913        F920   1.357       .  S
C914        C915   1.429       .  A
C914        F919   1.355       .  S
C915        C916   1.415       .  A
C916        F917   1.354       .  S
C921        C922   1.392       .  A
C921        C926   1.388       .  A
C921        F928   1.360       .  S
C922        C923   1.421       .  A
C923        C924   1.433       .  A
C923        F930   1.356       .  S
C924        C925   1.426       .  A
C924        F929   1.356       .  S
C925        C926   1.449       .  A
C926        F927   1.356       .  S
C931        C932   1.414       .  A
C931        C936   1.422       .  A
C931        F938   1.358       .  S
C932        C933   1.424       .  A
C933        C934   1.387       .  A
C933        F940   1.359       .  S
C934        C935   1.404       .  A
C934        F939   1.347   1_655  S
C935        C936   1.418       .  A
C936        F937   1.358       .  S
C941        C942   1.427       .  A
C941        C946   1.431       .  A
C941        F948   1.354       .  S
C942        C943   1.396       .  A
C943        C944   1.415       .  A
C943        F950   1.348   1_655  S
C944        C945   1.435       .  A
C944        F949   1.356       .  S
C945        C946   1.419       .  A
C946        F947   1.357       .  S
C951        C952   1.402       .  A
C951        C956   1.408       .  A
C951        F958   1.359       .  S
C952        C953   1.425       .  A
C953        C954   1.425       .  A
C953        F960   1.354       .  S
C954        C955   1.419       .  A
C954        F959   1.357       .  S
C955        C956   1.442       .  A
C956        F957   1.358       .  S
C961        C962   1.413       .  A
C961        C966   1.427       .  A
C961        F968   1.356       .  S
C962        C963   1.399       .  A
C963        C964   1.411       .  A
C963        F970   1.358       .  S
C964        C965   1.440       .  A
C964        F969   1.353       .  S
C965        C966   1.424       .  A
C966        F967   1.355       .  S
C971        C972   1.451       .  A
C971        C976   1.418       .  A
C971        F978   1.354       .  S
C972        C973   1.443       .  A
C973        C974   1.438       .  A
C973        F980   1.341       .  S
C974        C975   1.412       .  A
C974        F979   1.357       .  S
C975        C976   1.403       .  A
C976        F977   1.353       .  S
C981        C982   1.447       .  A
C981        C986   1.444       .  A
C981        F988   1.355       .  S
C982        C983   1.454       .  A
C983        C984   1.425       .  A
C983        F990   1.349       .  S
C984        C985   1.405       .  A
C984        F989   1.356       .  S
C985        C986   1.416       .  A
C986        F987   1.357       .  S
C991        C992   1.450       .  A
C991        C996   1.406       .  A
C991        F998   1.349       .  S
C992        C993   1.435       .  A
C993        C994   1.442       .  A
C993       F1000   1.354       .  S
C994        C995   1.420       .  A
C994        F999   1.356       .  S
C995        C996   1.394       .  A
C996        F997   1.357       .  S
C1001      C1002   1.419       .  A
C1001      C1006   1.426       .  A
C1001      F1008   1.354       .  S
C1002      C1003   1.395       .  A
C1003      C1004   1.406       .  A
C1003      F1010   1.359       .  S
C1004      C1005   1.449       .  A
C1004      F1009   1.351       .  S
C1005      C1006   1.419       .  A
C1006      F1007   1.357       .  S
C1011      C1012   1.417       .  A
C1011      C1016   1.416       .  A
C1011      F1018   1.344       .  S
C1012      C1013   1.418       .  A
C1013      C1014   1.429       .  A
C1013      F1020   1.356       .  S
C1014      C1015   1.428       .  A
C1014      F1019   1.357       .  S
C1015      C1016   1.418       .  A
C1016      F1017   1.354       .  S
C1021      C1022   1.407       .  A
C1021      C1026   1.423       .  A
C1021      F1028   1.357       .  S
C1022      C1023   1.405       .  A
C1023      C1024   1.408       .  A
C1023      F1030   1.353       .  S
C1024      C1025   1.431       .  A
C1024      F1029   1.356       .  S
C1025      C1026   1.443       .  A
C1026      F1027   1.356       .  S
C1031      C1032   1.439       .  A
C1031      C1036   1.447       .  A
C1031      F1038   1.356       .  S
C1032      C1033   1.407       .  A
C1033      C1034   1.378       .  A
C1033      F1040   1.356       .  S
C1034      C1035   1.430       .  A
C1034      F1039   1.357       .  S
C1035      C1036   1.421       .  A
C1036      F1037   1.356       .  S
C1041      C1042   1.431       .  A
C1041      C1046   1.444       .  A
C1041      F1048   1.356       .  S
C1042      C1043   1.416       .  A
C1043      C1044   1.401       .  A
C1043      F1050   1.357       .  S
C1044      C1045   1.401       .  A
C1044      F1049   1.347       .  S
C1045      C1046   1.428       .  A
C1046      F1047   1.354       .  S
C1051      C1052   1.426       .  A
C1051      C1056   1.436       .  A
C1051      F1058   1.357       .  S
C1052      C1053   1.417       .  A
C1053      C1054   1.414       .  A
C1053      F1060   1.357       .  S
C1054      C1055   1.407       .  A
C1054      F1059   1.359       .  S
C1055      C1056   1.423       .  A
C1056      F1057   1.356       .  S
C1061      C1062   1.433       .  A
C1061      C1066   1.423       .  A
C1061      F1068   1.356       .  S
C1062      C1063   1.417       .  A
C1063      C1064   1.398       .  A
C1063      F1070   1.356       .  S
C1064      C1065   1.393       .  A
C1064      F1069   1.359       .  S
C1065      C1066   1.417       .  A
C1066      F1067   1.355       .  S
C1071      C1072   1.412       .  A
C1071      C1076   1.402       .  A
C1071      F1078   1.349       .  S
C1072      C1073   1.410       .  A
C1073      C1074   1.411       .  A
C1073      F1080   1.358       .  S
C1074      C1075   1.425       .  A
C1074      F1079   1.357       .  S
C1075      C1076   1.417       .  A
C1076      F1077   1.359       .  S
C1081      C1082   1.425       .  A
C1081      C1086   1.419       .  A
C1081      F1088   1.357       .  S
C1082      C1083   1.419       .  A
C1083      C1084   1.420       .  A
C1083      F1090   1.358       .  S
C1084      C1085   1.421       .  A
C1084      F1089   1.355       .  S
C1085      C1086   1.415       .  A
C1086      F1087   1.357       .  S
C1091      C1092   1.408       .  A
C1091      C1096   1.410       .  A
C1091      F1098   1.356       .  S
C1092      C1093   1.394       .  A
C1093      C1094   1.400       .  A
C1093      F1100   1.358       .  S
C1094      C1095   1.438       .  A
C1094      F1099   1.351       .  S
C1095      C1096   1.415       .  A
C1096      F1097   1.357       .  S
C1101      C1102   1.427       .  A
C1101      C1106   1.420       .  A
C1101      F1108   1.351       .  S
C1102      C1103   1.386       .  A
C1103      C1104   1.392       .  A
C1103      F1110   1.359       .  S
C1104      C1105   1.440       .  A
C1104      F1109   1.334       .  S
C1105      C1106   1.414       .  A
C1106      F1107   1.356       .  S
C1111      C1112   1.387       .  A
C1111      C1116   1.407       .  A
C1111      F1118   1.360       .  S
C1112      C1113   1.403       .  A
C1113      C1114   1.412       .  A
C1113      F1120   1.352       .  S
C1114      C1115   1.441       .  A
C1114      F1119   1.353       .  S
C1115      C1116   1.436       .  A
C1116      F1117   1.335       .  S
C1121      C1122   1.435       .  A
C1121      C1126   1.438       .  A
C1121      F1128   1.349       .  S
C1122      C1123   1.383       .  A
C1123      C1124   1.395       .  A
C1123      F1130   1.360   1_655  S
C1124      C1125   1.443       .  A
C1124      F1129   1.322       .  S
C1125      C1126   1.422       .  A
C1126      F1127   1.357       .  S
C1131      C1132   1.400       .  A
C1131      C1136   1.398       .  A
C1131      F1138   1.354       .  S
C1132      C1133   1.419       .  A
C1133      C1134   1.428       .  A
C1133      F1140   1.357       .  S
C1134      C1135   1.427       .  A
C1134      F1139   1.356       .  S
C1135      C1136   1.439       .  A
C1136      F1137   1.358       .  S
C1141      C1142   1.416       .  A
C1141      C1146   1.411       .  A
C1141      F1148   1.351       .  S
C1142      C1143   1.405       .  A
C1143      C1144   1.410       .  A
C1143      F1150   1.358       .  S
C1144      C1145   1.437       .  A
C1144      F1149   1.358       .  S
C1145      C1146   1.413       .  A
C1146      F1147   1.356       .  S
C1151      C1152   1.409       .  A
C1151      C1156   1.414       .  A
C1151      F1158   1.351   1_545  S
C1152      C1153   1.418       .  A
C1153      C1154   1.425       .  A
C1153      F1160   1.356       .  S
C1154      C1155   1.430       .  A
C1154      F1159   1.357       .  S
C1155      C1156   1.424       .  A
C1156      F1157   1.348       .  S
C1161      C1162   1.406       .  A
C1161      C1166   1.417       .  A
C1161      F1168   1.357       .  S
C1162      C1163   1.399       .  A
C1163      C1164   1.405       .  A
C1163      F1170   1.358   1_545  S
C1164      C1165   1.437       .  A
C1164      F1169   1.357       .  S
C1165      C1166   1.436       .  A
C1166      F1167   1.356       .  S
C1171      C1172   1.402       .  A
C1171      C1176   1.413       .  A
C1171      F1178   1.358       .  S
C1172      C1173   1.406       .  A
C1173      C1174   1.416       .  A
C1173      F1180   1.357       .  S
C1174      C1175   1.412       .  A
C1174      F1179   1.357       .  S
C1175      C1176   1.448       .  A
C1176      F1177   1.351       .  S
C1181      C1182   1.409       .  A
C1181      C1186   1.414       .  A
C1181      F1188   1.352       .  S
C1182      C1183   1.411       .  A
C1183      C1184   1.412       .  A
C1183      F1190   1.346       .  S
C1184      C1185   1.432       .  A
C1184      F1189   1.353       .  S
C1185      C1186   1.430       .  A
C1186      F1187   1.356       .  S
C1191      C1192   1.417       .  A
C1191      C1196   1.408       .  A
C1191      F1198   1.346   1_554  S
C1192      C1193   1.417       .  A
C1193      C1194   1.408       .  A
C1193      F1200   1.350       .  S
C1194      C1195   1.403       .  A
C1194      F1199   1.357       .  S
C1195      C1196   1.422       .  A
C1196      F1197   1.359       .  S
C1201      C1202   1.423       .  A
C1201      C1206   1.429       .  A
C1201      F1208   1.357       .  S
C1202      C1203   1.399       .  A
C1203      C1204   1.393       .  A
C1203      F1210   1.354       .  S
C1204      C1205   1.441       .  A
C1204      F1209   1.353       .  S
C1205      C1206   1.420       .  A
C1206      F1207   1.357       .  S
C1211      C1212   1.440       .  A
C1211      C1216   1.396       .  A
C1211      F1218   1.351       .  S
C1212      C1213   1.412       .  A
C1213      C1214   1.421       .  A
C1213      F1220   1.357       .  S
C1214      C1215   1.416       .  A
C1214      F1219   1.356       .  S
C1215      C1216   1.399       .  A
C1216      F1217   1.355       .  S
C1221      C1222   1.429       .  A
C1221      C1226   1.423       .  A
C1221      F1228   1.356       .  S
C1222      C1223   1.410       .  A
C1223      C1224   1.419       .  A
C1223      F1230   1.358       .  S
C1224      C1225   1.409       .  A
C1224      F1229   1.356       .  S
C1225      C1226   1.413       .  A
C1226      F1227   1.356       .  S
C1231      C1232   1.426       .  A
C1231      C1236   1.425       .  A
C1231      F1238   1.357       .  S
C1232      C1233   1.439       .  A
C1233      C1234   1.400       .  A
C1233      F1240   1.358       .  S
C1234      C1235   1.398       .  A
C1234      F1239   1.358       .  S
C1235      C1236   1.416       .  A
C1236      F1237   1.357       .  S
C1241      C1242   1.446       .  A
C1241      C1246   1.416       .  A
C1241      F1248   1.351       .  S
C1242      C1243   1.440       .  A
C1243      C1244   1.402       .  A
C1243      F1250   1.334       .  S
C1244      C1245   1.393       .  A
C1244      F1249   1.359       .  S
C1245      C1246   1.397       .  A
C1246      F1247   1.358       .  S
C1251      C1252   1.452       .  A
C1251      C1256   1.425       .  A
C1251      F1258   1.355       .  S
C1252      C1253   1.448       .  A
C1253      C1254   1.427       .  A
C1253      F1260   1.351       .  S
C1254      C1255   1.409       .  A
C1254      F1259   1.354       .  S
C1255      C1256   1.404       .  A
C1256      F1257   1.355       .  S
C1261      C1262   1.409       .  A
C1261      C1266   1.422       .  A
C1261      F1268   1.357       .  S
C1262      C1263   1.411       .  A
C1263      C1264   1.422       .  A
C1263      F1270   1.357       .  S
C1264      C1265   1.436       .  A
C1264      F1269   1.352       .  S
C1265      C1266   1.417       .  A
C1266      F1267   1.358       .  S
C1271      C1272   1.434       .  A
C1271      C1276   1.422       .  A
C1271      F1278   1.341       .  S
C1272      C1273   1.405       .  A
C1273      C1274   1.421       .  A
C1273      F1280   1.350       .  S
C1274      C1275   1.425       .  A
C1274      F1279   1.345       .  S
C1275      C1276   1.411       .  A
C1276      F1277   1.357       .  S
C1281      C1282   1.417       .  A
C1281      C1286   1.412       .  A
C1281      F1288   1.357       .  S
C1282      C1283   1.428       .  A
C1283      C1284   1.387       .  A
C1283      F1290   1.345       .  S
C1284      C1285   1.392       .  A
C1284      F1289   1.354       .  S
C1285      C1286   1.409       .  A
C1286      F1287   1.356       .  S
C1291      C1292   1.422       .  A
C1291      C1296   1.410       .  A
C1291      F1298   1.349       .  S
C1292      C1293   1.405       .  A
C1293      C1294   1.413       .  A
C1293      F1300   1.357       .  S
C1294      C1295   1.437       .  A
C1294      F1299   1.358       .  S
C1295      C1296   1.401       .  A
C1296      F1297   1.357       .  S
C1301      C1302   1.431       .  A
C1301      C1306   1.402       .  A
C1301      F1308   1.343       .  S
C1302      C1303   1.439       .  A
C1303      C1304   1.414       .  A
C1303      F1310   1.356       .  S
C1304      C1305   1.405       .  A
C1304      F1309   1.358       .  S
C1305      C1306   1.399       .  A
C1306      F1307   1.353       .  S
C1311      C1312   1.449       .  A
C1311      C1316   1.420       .  A
C1311      F1318   1.349       .  S
C1312      C1313   1.452       .  A
C1313      C1314   1.415       .  A
C1313      F1320   1.351       .  S
C1314      C1315   1.399       .  A
C1314      F1319   1.358       .  S
C1315      C1316   1.400       .  A
C1316      F1317   1.358       .  S
C1321      C1322   1.437       .  A
C1321      C1326   1.420       .  A
C1321      F1328   1.339       .  S
C1322      C1323   1.423       .  A
C1323      C1324   1.426       .  A
C1323      F1330   1.358       .  S
C1324      C1325   1.422       .  A
C1324      F1329   1.353       .  S
C1325      C1326   1.403       .  A
C1326      F1327   1.358       .  S
C1331      C1332   1.403       .  A
C1331      C1336   1.417       .  A
C1331      F1338   1.358       .  S
C1332      C1333   1.447       .  A
C1333      C1334   1.412       .  A
C1333      F1340   1.357       .  S
C1334      C1335   1.408       .  A
C1334      F1339   1.356       .  S
C1335      C1336   1.424       .  A
C1336      F1337   1.347       .  S
C1341      C1342   1.426       .  A
C1341      C1346   1.396       .  A
C1341      F1348   1.351       .  S
C1342      C1343   1.417       .  A
C1343      C1344   1.427       .  A
C1343      F1350   1.357       .  S
C1344      C1345   1.430       .  A
C1344      F1349   1.357       .  S
C1345      C1346   1.396       .  A
C1346      F1347   1.358       .  S
C1351      C1352   1.429       .  A
C1351      C1356   1.431       .  A
C1351      F1358   1.358       .  S
C1352      C1353   1.416       .  A
C1353      C1354   1.418       .  A
C1353      F1360   1.352       .  S
C1354      C1355   1.412       .  A
C1354      F1359   1.351       .  S
C1355      C1356   1.422       .  A
C1356      F1357   1.356       .  S
C1361      C1362   1.444       .  A
C1361      C1366   1.411       .  A
C1361      F1368   1.352       .  S
C1362      C1363   1.437       .  A
C1363      C1364   1.397       .  A
C1363      F1370   1.349       .  S
C1364      C1365   1.395       .  A
C1364      F1369   1.354       .  S
C1365      C1366   1.396       .  A
C1366      F1367   1.358       .  S
C1371      C1372   1.418       .  A
C1371      C1376   1.418       .  A
C1371      F1378   1.355       .  S
C1372      C1373   1.444       .  A
C1373      C1374   1.435       .  A
C1373      F1380   1.355       .  S
C1374      C1375   1.415       .  A
C1374      F1379   1.357       .  S
C1375      C1376   1.405       .  A
C1376      F1377   1.358       .  S
C1381      C1382   1.403       .  A
C1381      C1386   1.415       .  A
C1381      F1388   1.359       .  S
C1382      C1383   1.435       .  A
C1383      C1384   1.428       .  A
C1383      F1390   1.358       .  S
C1384      C1385   1.419       .  A
C1384      F1389   1.356       .  S
C1385      C1386   1.424       .  A
C1386      F1387   1.354       .  S
C1391      C1392   1.456       .  A
C1391      C1396   1.420       .  A
C1391      F1398   1.343       .  S
C1392      C1393   1.457       .  A
C1393      C1394   1.415       .  A
C1393      F1400   1.342       .  S
C1394      C1395   1.397       .  A
C1394      F1399   1.358       .  S
C1395      C1396   1.397       .  A
C1396      F1397   1.357       .  S
C1401      C1402   1.440       .  A
C1401      C1406   1.416       .  A
C1401      F1408   1.343       .  S
C1402      C1403   1.416       .  A
C1403      C1404   1.411       .  A
C1403      F1410   1.358       .  S
C1404      C1405   1.410       .  A
C1404      F1409   1.351       .  S
C1405      C1406   1.399       .  A
C1406      F1407   1.358       .  S
C1411      C1412   1.449       .  A
C1411      C1416   1.421       .  A
C1411      F1418   1.349       .  S
C1412      C1413   1.452       .  A
C1413      C1414   1.402       .  A
C1413      F1420   1.353       .  S
C1414      C1415   1.395       .  A
C1414      F1419   1.352       .  S
C1415      C1416   1.404       .  A
C1416      F1417   1.358       .  S
C1421      C1422   1.408       .  A
C1421      C1426   1.420       .  A
C1421      F1428   1.358       .  S
C1422      C1423   1.433       .  A
C1423      C1424   1.413       .  A
C1423      F1430   1.359       .  S
C1424      C1425   1.401       .  A
C1424      F1429   1.354       .  S
C1425      C1426   1.425       .  A
C1426      F1427   1.347       .  S
C1431      C1432   1.416       .  A
C1431      C1436   1.373       .  A
C1431      F1438   1.356       .  S
C1432      C1433   1.402       .  A
C1433      C1434   1.380       .  A
C1433      F1440   1.356       .  S
C1434      C1435   1.412       .  A
C1434      F1439   1.349       .  S
C1435      C1436   1.401       .  A
C1436      F1437   1.356       .  S
C1441      C1442   1.368       .  A
C1441      C1446   1.386       .  A
C1441      F1448   1.359       .  S
C1442      C1443   1.406       .  A
C1443      C1444   1.408       .  A
C1443      F1450   1.356       .  S
C1444      C1445   1.413       .  A
C1444      F1449   1.332       .  S
C1445      C1446   1.453       .  A
C1446      F1447   1.347       .  S
C1451      C1452   1.356       .  A
C1451      C1456   1.355       .  A
C1451      F1458   1.339       .  S
C1452      C1453   1.398       .  A
C1453      C1454   1.393       .  A
C1453      F1460   1.350       .  S
C1454      C1455   1.408       .  A
C1454      F1459   1.354       .  S
C1455      C1456   1.420       .  A
C1456      F1457   1.334       .  S
C1461      C1462   1.410       .  A
C1461      C1466   1.393       .  A
C1461      F1468   1.355       .  S
C1462      C1463   1.439       .  A
C1463      C1464   1.379       .  A
C1463      F1470   1.356       .  S
C1464      C1465   1.382       .  A
C1464      F1469   1.360       .  S
C1465      C1466   1.418       .  A
C1466      F1467   1.359       .  S
C1471      C1472   1.411       .  A
C1471      C1476   1.411       .  A
C1471      F1478   1.350       .  S
C1472      C1473   1.376       .  A
C1473      C1474   1.388       .  A
C1473      F1480   1.361       .  S
C1474      C1475   1.438       .  A
C1474      F1479   1.332       .  S
C1475      C1476   1.419       .  A
C1476      F1477   1.355       .  S
C1481      C1482   1.421       .  A
C1481      C1486   1.402       .  A
C1481      F1488   1.350       .  S
C1482      C1483   1.435       .  A
C1483      C1484   1.396       .  A
C1483      F1490   1.358       .  S
C1484      C1485   1.390       .  A
C1484      F1489   1.358       .  S
C1485      C1486   1.399       .  A
C1486      F1487   1.358       .  S
C1491      C1492   1.425       .  A
C1491      C1496   1.399       .  A
C1491      F1498   1.355       .  S
C1492      C1493   1.405       .  A
C1493      C1494   1.397       .  A
C1493      F1500   1.356       .  S
C1494      C1495   1.424       .  A
C1494      F1499   1.356       .  S
C1495      C1496   1.406       .  A
C1496      F1497   1.358       .  S
C1501      C1502   1.420       .  A
C1501      C1506   1.408       .  A
C1501      F1508   1.353       .  S
C1502      C1503   1.408       .  A
C1503      C1504   1.418       .  A
C1503      F1510   1.357       .  S
C1504      C1505   1.429       .  A
C1504      F1509   1.349       .  S
C1505      C1506   1.411       .  A
C1506      F1507   1.353       .  S
C1511      C1512   1.419       .  A
C1511      C1516   1.424       .  A
C1511      F1518   1.357       .  S
C1512      C1513   1.424       .  A
C1513      C1514   1.422       .  A
C1513      F1520   1.356       .  S
C1514      C1515   1.410       .  A
C1514      F1519   1.358       .  S
C1515      C1516   1.415       .  A
C1516      F1517   1.357       .  S
C1521      C1522   1.440       .  A
C1521      C1526   1.403       .  A
C1521      F1528   1.356       .  S
C1522      C1523   1.430       .  A
C1523      C1524   1.406       .  A
C1523      F1530   1.355       .  S
C1524      C1525   1.402       .  A
C1524      F1529   1.357       .  S
C1525      C1526   1.395       .  A
C1526      F1527   1.357       .  S
C1531      C1532   1.404       .  A
C1531      C1536   1.385       .  A
C1531      F1538   1.355       .  S
C1532      C1533   1.398       .  A
C1533      C1534   1.387       .  A
C1533      F1540   1.356       .  S
C1534      C1535   1.403       .  A
C1534      F1539   1.350       .  S
C1535      C1536   1.410       .  A
C1536      F1537   1.361       .  S
