geometry optimzed in LAMMPS
_audit_creation_date              2020-12-01 
_audit_creation_method            'lammps2cif' 
_symmetry_space_group_name_H-M    'P1' 
_symmetry_Int_Tables_number       1 
_symmetry_cell_setting            triclinic 
loop_ 
_symmetry_equiv_pos_as_xyz 
  x,y,z 
_cell_length_a                    38.74836925 
_cell_length_b                    40.79221766851895 
_cell_length_c                    40.669924208252766 
_cell_angle_alpha                 90.28021484553031 
_cell_angle_beta                  89.88010066995747 
_cell_angle_gamma                 84.31075939734814 
loop_ 
_atom_site_label 
_atom_site_type_symbol 
_atom_site_fract_x 
_atom_site_fract_y 
_atom_site_fract_z 
_atom_site_charge 
C1          C  0.85385710  0.86815769  0.63154428    -0.02700
C2          C  0.49694289  0.56174402  0.61994364    -0.02700
C3          C  0.84207049  0.56609314  0.93230716    -0.02700
C4          C  0.52923216  0.86628186  0.93247522    -0.02700
C5          C  0.99715213  0.04700049  0.43613103    -0.02700
C6          C  0.02391626  0.36882477  0.11246189    -0.02700
C7          C  0.34443328  0.06312101  0.11480018    -0.02700
C8          C  0.35528452  0.38041589  0.42066311    -0.02700
Zr9        Zr  0.89941829  0.93498348  0.98731921     2.17500
O10         O  0.85493435  0.94599496  0.94534079    -0.51600
O11         O  0.89981982  0.87519788  0.98626774    -0.74800
O12         O  0.92206381  0.92247277  0.93300185    -0.81600
O13         O  0.82983332  0.94796143  0.05444350    -0.83300
O14         O  0.97566847  0.93993519  0.92779467    -0.78900
O15         O  0.83982298  0.93085863  0.00169820    -0.90600
O16         O  0.93949248  0.85497242  0.02375527    -0.76500
O17         O  0.95899018  0.91640954  0.99458675    -0.86000
O18         O  0.90394757  0.91829080  0.04316848    -0.85700
O19         O  0.92998734  0.98143680  0.97335659    -0.72500
O20         O  0.87970268  0.98303988  0.01888350    -0.84600
Zr21       Zr  0.97562347  0.99398870  0.07015631     2.26400
Zr22       Zr  0.99009174  0.96271611  0.98198262     2.06300
Zr23       Zr  0.88479811  0.96604829  0.07511801     2.10000
Zr24       Zr  0.96366037  0.90069900  0.05077383     1.78800
O25         O  0.83915392  0.00812944  0.09195438    -0.93400
O26         O  0.01353897  0.86445227  0.03169383    -0.41200
O27         O  0.94479332  0.94783110  0.08393041    -0.77800
O28         O  0.99616275  0.94619573  0.03844080    -0.96500
O29         O  0.97141123  0.01059590  0.01423012    -0.89800
O30         O  0.91599933  0.01241974  0.06268549    -0.92700
C31         C  0.91653605  0.85123865  0.00170614     1.01100
C32         C  0.81997376  0.93645799  0.02673945     1.14000
C33         C  0.94937368  0.92646722  0.91629822     1.04800
O34         O  0.03900759  0.92130052  0.97333939    -0.94800
O35         O  0.04213890  0.98790861  0.00041245    -0.90600
O36         O  0.03215756  0.00670016  0.05269002    -0.83700
C37         C  0.05114593  0.00243030  0.02688996     1.11400
O38         O  0.86431564  0.04452464  0.96940392    -0.96800
Zr39       Zr  0.91204800  0.02882696  0.00674966     1.88900
O40         O  0.97495574  0.05329546  0.07295036    -0.73400
O41         O  0.00679068  0.99680431  0.93674075    -0.52700
O42         O  0.93326130  0.05389551  0.95736655    -0.97400
O43         O  0.86428278  0.06768205  0.02599129    -0.54600
O44         O  0.94079840  0.07387368  0.03124246    -0.74000
C45         C  0.96162898  0.07726869  0.05534533     0.98400
O46         O  0.01974182  0.97926599  0.11171188    -0.62800
O47         O  0.86652108  0.92523102  0.11324429    -0.57600
O48         O  0.95309976  0.00610845  0.12476167    -0.94300
O49         O  0.90163386  0.98408890  0.13019395    -0.92700
O50         O  0.94135919  0.87084154  0.09668886    -0.93100
O51         O  0.00676175  0.88800630  0.09351218    -0.91800
C52         C  0.92687768  0.99905387  0.14166832     1.17200
H53         H  0.88966529  0.90074187  0.04778416     0.33200
H54         H  0.02033070  0.94005749  0.04326739     0.44000
H55         H  0.90881679  0.03078693  0.07704040     0.37500
H56         H  0.92607112  0.98706538  0.95053468     0.34000
H57         H  0.00833753  0.85956488  0.00845975     0.25800
H58         H  0.01307427  0.01734600  0.94721300     0.31800
H59         H  0.94998469  0.06894023  0.96535288     0.37700
H60         H  0.92931283  0.85299293  0.08666130     0.32100
H61         H  0.88744557  0.91835657  0.12639201     0.31000
H62         H  0.82633168  0.99756664  0.10940793     0.32700
H63         H  0.87494251  0.08746568  0.03350004     0.31600
H64         H  0.00425337  0.90742274  0.10832901     0.35600
H65         H  0.00836756  0.96609214  0.12816668     0.28400
H66         H  0.85496082  0.92535415  0.93241170     0.32600
H67         H  0.85393827  0.02374425  0.96488029     0.35500
H68         H  0.85063029  0.93795296  0.12879528     0.28100
H69         H  0.03677673  0.96306113  0.10075620     0.40900
H70         H  0.02863770  0.90203862  0.96411309     0.31000
H71         H  0.03277965  0.87866294  0.03046715     0.38600
H72         H  0.85596809  0.05784960  0.04637138     0.30500
H73         H  0.02908282  0.98560048  0.92870476     0.30500
H74         H  0.86408728  0.96199261  0.93018586     0.30800
Zr75       Zr  0.88313684  0.50697821  0.55116466     2.17500
O76         O  0.84192742  0.55357366  0.53612078    -0.51600
O77         O  0.87839222  0.51101676  0.61085537    -0.74800
O78         O  0.82489693  0.49650322  0.56437705    -0.81600
O79         O  0.95785731  0.56022860  0.53633792    -0.83300
O80         O  0.81753836  0.44308628  0.55293756    -0.78900
O81         O  0.90385934  0.56035783  0.55828830    -0.90600
O82         O  0.91725878  0.47145436  0.63191242    -0.76500
O83         O  0.88936267  0.45251603  0.57214568    -0.86000
O84         O  0.94240310  0.49738272  0.56640293    -0.85700
O85         O  0.86528287  0.47266203  0.50743615    -0.72500
O86         O  0.91499568  0.51450828  0.50161972    -0.84600
Zr87       Zr  0.96442904  0.41443397  0.49414120     2.26400
Zr88       Zr  0.87265194  0.41763455  0.52870371     2.06300
Zr89       Zr  0.97478847  0.50365282  0.51695340     2.10000
Zr90       Zr  0.94872181  0.44282324  0.58684749     1.78800
O91         O  0.98968110  0.53988616  0.47282159    -0.93400
O92         O  0.93065732  0.40100148  0.62406578    -0.41200
O93         O  0.98220615  0.44862738  0.53789288    -0.77800
O94         O  0.93261213  0.40700538  0.54387618    -0.96500
O95         O  0.90498418  0.42362892  0.47911457    -0.89800
O96         O  0.95818890  0.46900870  0.47332058    -0.92700
C97         C  0.89306222  0.49512549  0.63512095     1.01100
C98         C  0.93089750  0.57462995  0.55099163     1.14000
C99         C  0.80645342  0.47217556  0.56360779     1.04800
O100        O  0.85529592  0.38023033  0.57072574    -0.94800
O101        O  0.89211028  0.36001846  0.51300344    -0.90600
O102        O  0.94611488  0.35992980  0.49101322    -0.83700
C103        C  0.91992531  0.34525448  0.49994159     1.11400
O104        O  0.84952095  0.51798997  0.44611911    -0.96800
Zr105      Zr  0.89890442  0.47838046  0.45864140     1.88900
O106        O  0.96462199  0.40553913  0.43475614    -0.73400
O107        O  0.82716141  0.40484684  0.49085072    -0.52700
O108        O  0.85528625  0.45566881  0.42473347    -0.97400
O109        O  0.91658330  0.52187093  0.42333701    -0.54600
O110        O  0.92831065  0.44719979  0.41373573    -0.74000
C111        C  0.95024968  0.42161122  0.41044426     0.98400
O112        O  0.01077744  0.37270335  0.51032479    -0.62800
O113        O  0.02165002  0.51826382  0.55234540    -0.57600
O114        O  0.02118102  0.42641870  0.47707556    -0.94300
O115        O  0.02992950  0.47813840  0.49400186    -0.92700
O116        O  0.99256323  0.46788574  0.61852893    -0.93100
O117        O  0.99801034  0.40300569  0.59926097    -0.91800
C118        C  0.04012185  0.45022553  0.48033267     1.17200
H119        H  0.94824227  0.51264306  0.58326164     0.33200
H120        H  0.93732681  0.38462823  0.55147329     0.44000
H121        H  0.97277075  0.47120370  0.45432407     0.37500
H122        H  0.84116186  0.47862833  0.50226515     0.34000
H123        H  0.90509372  0.40544858  0.62528600     0.25800
H124        H  0.83825103  0.38734228  0.47627144     0.31800
H125        H  0.83904522  0.44713074  0.44062940     0.37700
H126        H  0.98824281  0.46184376  0.64162217     0.32100
H127        H  0.01013928  0.52625478  0.57303366     0.31000
H128        H  0.96892880  0.55586430  0.47019394     0.32700
H129        H  0.94181936  0.51643631  0.42001053     0.31600
H130        H  0.99366367  0.38286220  0.58690436     0.35600
H131        H  0.02687990  0.38469697  0.52363854     0.28400
H132        H  0.82846932  0.55958932  0.55636067     0.32600
H133        H  0.85094705  0.53598398  0.46233100     0.35500
H134        H  0.03450670  0.49693933  0.55831218     0.28100
H135        H  0.00015210  0.35875985  0.52660095     0.40900
H136        H  0.83433333  0.37145025  0.56169858     0.31000
H137        H  0.93456566  0.37990743  0.61186104     0.38600
H138        H  0.91472173  0.54186070  0.43738690     0.30500
H139        H  0.81077381  0.39359584  0.50448695     0.30500
H140        H  0.82523465  0.54437952  0.52108112     0.30800
Zr141      Zr  0.47186137  0.49565463  0.98039986     2.17500
O142        O  0.51654072  0.50138608  0.93894652    -0.51600
O143        O  0.47087035  0.55559135  0.98162401    -0.74800
O144        O  0.44964374  0.50051484  0.92495500    -0.81600
O145        O  0.54258595  0.47849631  0.04605801    -0.83300
O146        O  0.39678093  0.48133443  0.92068130    -0.78900
O147        O  0.53336113  0.48785124  0.99158270    -0.90600
O148        O  0.43029366  0.57551670  0.01864038    -0.76500
O149        O  0.41176791  0.51225952  0.98791798    -0.86000
O150        O  0.46697239  0.51255428  0.03638227    -0.85700
O151        O  0.44287586  0.44776882  0.96679759    -0.72500
O152        O  0.49254401  0.44820785  0.01167131    -0.84600
Zr153      Zr  0.39744442  0.43341005  0.06341807     2.26400
Zr154      Zr  0.38225171  0.46437787  0.97621361     2.06300
Zr155      Zr  0.48670804  0.46493771  0.06804304     2.10000
Zr156      Zr  0.40676960  0.52838375  0.04413870     1.78800
O157        O  0.53391126  0.42517618  0.08594714    -0.93400
O158        O  0.35701622  0.56329957  0.02322247    -0.41200
O159        O  0.42617913  0.48130435  0.07706615    -0.77800
O160        O  0.37603103  0.48130089  0.03262901    -0.96500
O161        O  0.40267384  0.41681892  0.00749461    -0.89800
O162        O  0.45752586  0.41705380  0.05577816    -0.92700
C163        C  0.45358134  0.57952676  0.99685381     1.01100
C164        C  0.55318203  0.48397002  0.01674515     1.14000
C165        C  0.42313065  0.49382560  0.90841076     1.04800
O166        O  0.33607645  0.50701671  0.96273896    -0.94800
O167        O  0.32834347  0.44344057  0.99573339    -0.90600
O168        O  0.33896670  0.42491367  0.04767391    -0.83700
C169        C  0.31917088  0.42997936  0.02260452     1.11400
O170        O  0.50527919  0.38888439  0.95593372    -0.96800
Zr171      Zr  0.46272222  0.40097762  0.99958956     1.88900
O172        O  0.40048974  0.37335178  0.06368798    -0.73400
O173        O  0.36449164  0.42495415  0.93593095    -0.52700
O174        O  0.44066527  0.36759716  0.95601245    -0.97400
O175        O  0.51623383  0.37030319  0.01813902    -0.54600
O176        O  0.44036337  0.35381681  0.02576276    -0.74000
C177        C  0.41753072  0.34960785  0.04791202     0.98400
O178        O  0.35233043  0.43891744  0.10563149    -0.62800
O179        O  0.50220002  0.50927120  0.10385065    -0.57600
O180        O  0.42025941  0.42523846  0.11829315    -0.94300
O181        O  0.47190382  0.44668542  0.12319834    -0.92700
O182        O  0.42722093  0.55903456  0.09051199    -0.93100
O183        O  0.36079840  0.54048638  0.08461057    -0.91800
C184        C  0.44657282  0.43224486  0.13499863     1.17200
H185        H  0.48088186  0.53035781  0.04117054     0.33200
H186        H  0.35182188  0.48716305  0.03771192     0.44000
H187        H  0.46544691  0.39902604  0.07009513     0.37500
H188        H  0.44705450  0.44140851  0.94413126     0.34000
H189        H  0.36391327  0.56966591  0.00087035     0.25800
H190        H  0.38577525  0.41788667  0.92322508     0.31800
H191        H  0.44057358  0.38130683  0.93598982     0.37700
H192        H  0.41713906  0.58201966  0.08703239     0.32100
H193        H  0.48915471  0.50694074  0.12452070     0.31000
H194        H  0.53805946  0.43085607  0.10920266     0.32700
H195        H  0.51062824  0.36157610  0.03996810     0.31600
H196        H  0.36062944  0.51991386  0.09740719     0.35600
H197        H  0.35503286  0.41806549  0.11817685     0.28400
H198        H  0.50943444  0.52218894  0.92723351     0.32600
H199        H  0.51194906  0.41071350  0.94927542     0.35500
H200        H  0.52672746  0.50297432  0.10976169     0.28100
H201        H  0.35902738  0.45597850  0.12111656     0.40900
H202        H  0.32396707  0.49786201  0.94389744     0.31000
H203        H  0.33895832  0.54815552  0.01943890     0.38600
H204        H  0.53200194  0.38738829  0.02294526     0.30500
H205        H  0.36013636  0.40528424  0.94888256     0.30500
H206        H  0.51440278  0.48364464  0.92258149     0.30800
Zr207      Zr  0.46960716  0.92877109  0.56086016     2.17500
O208        O  0.51253903  0.88174465  0.55148086    -0.51600
O209        O  0.46872283  0.92677153  0.62049895    -0.74800
O210        O  0.52746714  0.94208075  0.57331857    -0.81600
O211        O  0.39678784  0.87335444  0.54887655    -0.83300
O212        O  0.53545828  0.99216699  0.55193301    -0.78900
O213        O  0.45002224  0.87572141  0.57184660    -0.90600
O214        O  0.42672873  0.96563560  0.63799143    -0.76500
O215        O  0.46341970  0.98526210  0.57647269    -0.86000
O216        O  0.40998110  0.93995456  0.57473538    -0.85700
O217        O  0.48755056  0.95781489  0.51358675    -0.72500
O218        O  0.43803355  0.91572683  0.51265076    -0.84600
Zr219      Zr  0.38884709  0.01421793  0.49467800     2.26400
Zr220      Zr  0.47960612  0.01501315  0.52897829     2.06300
Zr221      Zr  0.37800807  0.92828169  0.52651657     2.10000
Zr222      Zr  0.40376317  0.99636309  0.59010017     1.78800
O223        O  0.36217496  0.88686003  0.48754372    -0.93400
O224        O  0.42891643  0.03788950  0.62315474    -0.41200
O225        O  0.37064114  0.98535971  0.54200141    -0.77800
O226        O  0.41967688  0.02734430  0.54338268    -0.96500
O227        O  0.44828956  0.00284367  0.48052752    -0.89800
O228        O  0.39511813  0.95762782  0.47932064    -0.92700
C229        C  0.45032163  0.94179735  0.64327791     1.01100
C230        C  0.42348489  0.86059792  0.56491712     1.14000
C231        C  0.54634028  0.96536406  0.56697048     1.04800
O232        O  0.49623633  0.05550558  0.56861416    -0.94800
O233        O  0.46081326  0.06993106  0.50607352    -0.90600
O234        O  0.40802046  0.06717503  0.48256908    -0.83700
C235        C  0.43414188  0.08268094  0.48990864     1.11400
O236        O  0.49859335  0.89939881  0.45927410    -0.96800
Zr237      Zr  0.45474244  0.94605806  0.46584691     1.88900
O238        O  0.39113155  0.01566529  0.43485814    -0.73400
O239        O  0.52500580  0.02636207  0.49035711    -0.52700
O240        O  0.50515249  0.95951642  0.43471895    -0.97400
O241        O  0.43359494  0.90220085  0.43289156    -0.54600
O242        O  0.43110462  0.97492978  0.41723808    -0.74000
C243        C  0.40828707  0.99940719  0.41196181     0.98400
O244        O  0.34502729  0.06053361  0.50464458    -0.62800
O245        O  0.33241946  0.91822670  0.56547532    -0.57600
O246        O  0.33149063  0.00098494  0.48101234    -0.94300
O247        O  0.32259248  0.95090797  0.50186557    -0.92700
O248        O  0.35337320  0.98399180  0.62189108    -0.93100
O249        O  0.36097398  0.04314113  0.60040956    -0.91800
C250        C  0.31242916  0.97761627  0.48625681     1.17200
H251        H  0.40368616  0.92635222  0.59269743     0.33200
H252        H  0.41489995  0.05049815  0.54853245     0.44000
H253        H  0.38079159  0.95351468  0.46064449     0.37500
H254        H  0.51170308  0.95128508  0.50886411     0.34000
H255        H  0.41660685  0.03782340  0.64451341     0.25800
H256        H  0.53787578  0.00461542  0.48578763     0.31800
H257        H  0.50125235  0.98358515  0.43115679     0.37700
H258        H  0.35006444  0.96090893  0.61618847     0.32100
H259        H  0.32019801  0.90068220  0.55508492     0.31000
H260        H  0.34506960  0.87481240  0.49943843     0.32700
H261        H  0.41235175  0.91237832  0.42205451     0.31600
H262        H  0.34854829  0.04665450  0.57928487     0.35600
H263        H  0.32663573  0.05143154  0.51769371     0.28400
H264        H  0.52518017  0.87835885  0.57252517     0.32600
H265        H  0.49170166  0.88268651  0.47492461     0.35500
H266        H  0.34464108  0.90732165  0.58443749     0.28100
H267        H  0.35574680  0.07500605  0.52046127     0.40900
H268        H  0.47480641  0.07032642  0.57260282     0.31000
H269        H  0.45277844  0.02821259  0.62809886     0.38600
H270        H  0.42508402  0.88690319  0.44916870     0.30500
H271        H  0.51262436  0.03221285  0.46960963     0.30500
H272        H  0.52962406  0.88960456  0.53598049     0.30800
C273        C  0.07620686  0.44386781  0.46783750    -0.03400
C274        C  0.08520380  0.41607906  0.44778233    -0.06000
C275        C  0.11959285  0.40702512  0.43897478    -0.21100
C276        C  0.14603656  0.42552484  0.44965492     0.24600
C277        C  0.13708665  0.45418522  0.46861731    -0.18700
C278        C  0.10241990  0.46331112  0.47751967    -0.08600
C279        C  0.18247196  0.41248170  0.44231823    -0.18900
C280        C  0.20967962  0.43048458  0.44363833    -0.23700
C281        C  0.24577475  0.41622186  0.43669729     0.26700
C282        C  0.26946798  0.43673678  0.42425588    -0.20500
C283        C  0.30388810  0.42458813  0.41852144    -0.10100
C284        C  0.31592791  0.39133371  0.42487008    -0.10700
C285        C  0.29199350  0.37099400  0.43816225    -0.03600
C286        C  0.25739248  0.38322495  0.44376655    -0.18700
H287        H  0.06572379  0.40063928  0.43949161     0.10400
H288        H  0.12564055  0.38495886  0.42428625     0.10400
H289        H  0.15675273  0.46885858  0.47781953     0.10100
H290        H  0.09637164  0.48474517  0.49306819     0.11200
H291        H  0.18686520  0.38688160  0.43457458     0.11300
H292        H  0.20545057  0.45677533  0.44837023     0.13200
H293        H  0.26135273  0.46236450  0.41905338     0.09700
H294        H  0.32153816  0.44136634  0.40923568     0.11800
H295        H  0.29989572  0.34601099  0.44560579     0.08400
H296        H  0.24013378  0.36706988  0.45477640     0.11200
C297        C  0.44659351  0.42295818  0.17020133    -0.03400
C298        C  0.46380400  0.44013303  0.19419225    -0.06000
C299        C  0.45956683  0.43333658  0.22772360    -0.21100
C300        C  0.43811787  0.40933270  0.23774038     0.24600
C301        C  0.42288839  0.39076986  0.21351466    -0.18700
C302        C  0.42681952  0.39770588  0.18029212    -0.08600
C303        C  0.43103161  0.40464165  0.27336587    -0.18900
C304        C  0.40073570  0.39470746  0.28387811    -0.23700
C305        C  0.39056994  0.39208403  0.31890954     0.26700
C306        C  0.41460531  0.38491457  0.34431429    -0.20500
C307        C  0.40312988  0.38139482  0.37673998    -0.10100
C308        C  0.36746612  0.38613781  0.38489812    -0.10700
C309        C  0.34373176  0.39207561  0.35871701    -0.03600
C310        C  0.35515800  0.39512429  0.32647760    -0.18700
H311        H  0.47929692  0.45965119  0.18714261     0.10400
H312        H  0.47200181  0.44767268  0.24588901     0.10400
H313        H  0.40755696  0.37100499  0.22007183     0.10100
H314        H  0.41384578  0.38348346  0.16240300     0.11200
H315        H  0.44967759  0.41201888  0.29114833     0.11300
H316        H  0.38089079  0.39064271  0.26592138     0.13200
H317        H  0.44211161  0.38111203  0.33910153     0.09700
H318        H  0.42217648  0.37500288  0.39568725     0.11800
H319        H  0.31603520  0.39333586  0.36248058     0.08400
H320        H  0.33604066  0.39967041  0.30719845     0.11200
C321        C  0.36502737  0.34298848  0.42659335    -0.03400
C322        C  0.34946125  0.31964696  0.40734005    -0.06000
C323        C  0.35830121  0.28578111  0.41133833    -0.21100
C324        C  0.38369893  0.27385227  0.43409243     0.24600
C325        C  0.40049659  0.29693485  0.45236991    -0.18700
C326        C  0.39165618  0.33080417  0.44838505    -0.08600
C327        C  0.39062831  0.23735452  0.43858141    -0.18900
C328        C  0.41688020  0.22218916  0.45660273    -0.23700
C329        C  0.42214504  0.18584237  0.46301648     0.26700
C330        C  0.44794556  0.17383549  0.48550934    -0.20500
C331        C  0.45287511  0.14025978  0.49360342    -0.10100
C332        C  0.43200824  0.11778907  0.47940955    -0.10700
C333        C  0.40686114  0.12963210  0.45623576    -0.03600
C334        C  0.40204329  0.16302036  0.44805853    -0.18700
H335        H  0.32993858  0.32775449  0.38933754     0.10400
H336        H  0.34506348  0.26877941  0.39655110     0.10400
H337        H  0.42033716  0.28931585  0.47010364     0.10100
H338        H  0.40643865  0.34717521  0.46226536     0.11200
H339        H  0.37242976  0.22270884  0.42669706     0.11300
H340        H  0.43532691  0.23688783  0.46807530     0.13200
H341        H  0.46399726  0.19063663  0.49740485     0.09700
H342        H  0.47232943  0.13208994  0.51164237     0.11800
H343        H  0.39043283  0.11305543  0.44450362     0.08400
H344        H  0.38232876  0.17040657  0.43014718     0.11200
C345        C  0.35104424  0.09956329  0.10774969    -0.03400
C346        C  0.33151362  0.12538672  0.12488034    -0.06000
C347        C  0.33738815  0.15840029  0.12024642    -0.21100
C348        C  0.36210146  0.16707800  0.09745304     0.24600
C349        C  0.38049363  0.14171659  0.07904517    -0.18700
C350        C  0.37461791  0.10870443  0.08364880    -0.08600
C351        C  0.36864597  0.20253804  0.09439594    -0.18900
C352        C  0.38426201  0.21491555  0.06812707    -0.23700
C353        C  0.39292808  0.24967163  0.06523425     0.26700
C354        C  0.41946273  0.25622633  0.04339213    -0.22500
C355        C  0.42797572  0.28837957  0.03851117    -0.10100
C356        C  0.40986836  0.31515950  0.05508408    -0.10700
C357        C  0.38340430  0.30863804  0.07727664    -0.03600
C358        C  0.37500915  0.27628646  0.08232254    -0.18700
H359        H  0.31222656  0.11978380  0.14276328     0.10400
H360        H  0.32253907  0.17727444  0.13465050     0.10400
H361        H  0.40002732  0.14692402  0.06135066     0.10100
H362        H  0.38876910  0.09070682  0.06790713     0.11200
H363        H  0.36047987  0.21878722  0.11476155     0.11300
H364        H  0.39214651  0.19875576  0.04766354     0.13200
H365        H  0.43369420  0.23628643  0.02986239     0.09700
H366        H  0.44848979  0.29224095  0.02126288     0.11800
H367        H  0.36868350  0.32860679  0.09031990     0.08400
H368        H  0.35389848  0.27243636  0.09884751     0.11200
C369        C  0.40104804  0.00958624  0.37726677    -0.03400
C370        C  0.38065998  0.03923737  0.37039366    -0.06000
C371        C  0.37322447  0.04869245  0.33793251    -0.21100
C372        C  0.38552091  0.02866686  0.31138950     0.24600
C373        C  0.40639948  0.99921068  0.31810660    -0.18700
C374        C  0.41411675  0.98984710  0.35065393    -0.08600
C375        C  0.37711793  0.04015478  0.27725245    -0.18900
C376        C  0.37700408  0.02003557  0.25078339    -0.23700
C377        C  0.36844929  0.03208262  0.21683851     0.26700
C378        C  0.35616919  0.01045897  0.19371131    -0.20500
C379        C  0.34822643  0.02085165  0.16159553    -0.10100
C380        C  0.35245471  0.05329272  0.15125311    -0.10700
C381        C  0.36654582  0.07430682  0.17436807    -0.03600
C382        C  0.37386726  0.06404961  0.20664647    -0.18700
H383        H  0.37044444  0.05529940  0.39013694     0.10400
H384        H  0.35748995  0.07171039  0.33355155     0.10400
H385        H  0.41729698  0.98358192  0.29836071     0.10100
H386        H  0.43015968  0.96700256  0.35495056     0.11200
H387        H  0.36908407  0.06621843  0.27423495     0.11300
H388        H  0.38181312  0.99360096  0.25414499     0.13200
H389        H  0.35246292  0.98541823  0.20056603     0.09700
H390        H  0.33861106  0.00342033  0.14456550     0.11800
H391        H  0.37302961  0.09854258  0.16783386     0.08400
H392        H  0.38493347  0.08098004  0.22320998     0.11200
C393        C  0.30557378  0.06117556  0.10609394    -0.03400
C394        C  0.28019961  0.05473265  0.12960373    -0.06000
C395        C  0.24584828  0.05199218  0.12031294    -0.21100
C396        C  0.23551111  0.05578487  0.08741818     0.24600
C397        C  0.25983353  0.06454495  0.06422034    -0.18700
C398        C  0.29411735  0.06774590  0.07355865    -0.08600
C399        C  0.19903128  0.05109893  0.07851957    -0.18900
C400        C  0.18935439  0.04094485  0.04854389    -0.23700
C401        C  0.15327134  0.03352165  0.04096658     0.26700
C402        C  0.14768947  0.00994880  0.01666703    -0.20500
C403        C  0.11428641  0.00068893  0.01073267    -0.10100
C404        C  0.08581666  0.01495925  0.02899537    -0.10700
C405        C  0.09120781  0.03996732  0.05188190    -0.03600
C406        C  0.12441840  0.04921720  0.05772231    -0.18700
H407        H  0.28633175  0.05196911  0.15538256     0.10400
H408        H  0.22732438  0.04636196  0.13893958     0.10400
H409        H  0.25244455  0.06918192  0.03890020     0.10100
H410        H  0.31226163  0.07432893  0.05500428     0.11200
H411        H  0.18004261  0.05353704  0.09826865     0.11300
H412        H  0.20895936  0.03530414  0.02970314     0.13200
H413        H  0.16941644  0.99781517  0.00305192     0.09700
H414        H  0.11098611  0.98144734  0.99290972     0.11800
H415        H  0.06970055  0.05204537  0.06585454     0.08400
H416        H  0.12736813  0.06849138  0.07557033     0.11200
C417        C  0.01643203  0.37502506  0.14984984    -0.03400
C418        C  0.02182600  0.40602788  0.16354946    -0.06000
C419        C  0.01392894  0.41369320  0.19643263    -0.21100
C420        C  0.00005499  0.39085233  0.21703865     0.24600
C421        C  0.99355341  0.36022356  0.20365598    -0.18700
C422        C  0.00121585  0.35256675  0.17055104    -0.08600
C423        C  0.99065258  0.40093493  0.25153034    -0.18900
C424        C  0.98767037  0.37976498  0.27660544    -0.23700
C425        C  0.97803854  0.39084924  0.31081919     0.26700
C426        C  0.98866574  0.37069230  0.33763618    -0.20500
C427        C  0.97986257  0.38049332  0.37000146    -0.10100
C428        C  0.95967612  0.41052076  0.37626561    -0.10700
C429        C  0.94856501  0.43032759  0.34930513    -0.03600
C430        C  0.95755778  0.42066597  0.31710551    -0.18700
H431        H  0.03224080  0.42455809  0.14849520     0.10400
H432        H  0.01858989  0.43776897  0.20578669     0.10400
H433        H  0.98139405  0.34251556  0.21833014     0.10100
H434        H  0.99392873  0.32938280  0.16136645     0.11200
H435        H  0.98756303  0.42720673  0.25663836     0.11300
H436        H  0.99393447  0.35354848  0.27242251     0.13200
H437        H  0.00413829  0.34742143  0.33354936     0.09700
H438        H  0.98876092  0.36449411  0.39006956     0.11800
H439        H  0.93287135  0.45352908  0.35301815     0.08400
H440        H  0.94783284  0.43643109  0.29719170     0.11200
C441        C  0.28352688  0.41956109  0.02601318    -0.03400
C442        C  0.25619200  0.43114283  0.00507239    -0.06000
C443        C  0.22229279  0.42292933  0.01096814    -0.21100
C444        C  0.21504200  0.40310219  0.03789682     0.24600
C445        C  0.24281793  0.39014208  0.05760917    -0.18700
C446        C  0.27638016  0.39841311  0.05188591    -0.08600
C447        C  0.17856661  0.39607672  0.04486525    -0.18900
C448        C  0.16769555  0.38822459  0.07522441    -0.23700
C449        C  0.13162123  0.38144942  0.08393274     0.26700
C450        C  0.12206547  0.38187896  0.11725974    -0.20500
C451        C  0.08840964  0.37656154  0.12695356    -0.10100
C452        C  0.06267501  0.37143094  0.10344252    -0.10700
C453        C  0.07345543  0.36803692  0.07020304    -0.03600
C454        C  0.10715698  0.37346053  0.06050743    -0.18700
H455        H  0.26079409  0.44722131  0.98475670     0.10400
H456        H  0.20153434  0.43276442  0.99494974     0.10400
H457        H  0.23892563  0.37343709  0.07753545     0.10100
H458        H  0.29683224  0.38825454  0.06808028     0.11200
H459        H  0.16008320  0.39911064  0.02485706     0.11300
H460        H  0.18577397  0.38826179  0.09554944     0.13200
H461        H  0.14073032  0.38666713  0.13604820     0.09700
H462        H  0.08303783  0.37665177  0.15300434     0.11800
H463        H  0.05509143  0.36256580  0.05140554     0.08400
H464        H  0.11380311  0.37126776  0.03470885     0.11200
C465        C  0.97128427  0.11086821  0.06330752    -0.03400
C466        C  0.99090592  0.11634113  0.09153033    -0.06000
C467        C  0.00045658  0.14775054  0.09887191    -0.21100
C468        C  0.99089277  0.17465596  0.07825225     0.24600
C469        C  0.97122228  0.16917741  0.04992161    -0.18700
C470        C  0.96156694  0.13771790  0.04263179    -0.08600
C471        C  0.00134660  0.20773784  0.08802226    -0.18900
C472        C  0.99582848  0.23534649  0.06979792    -0.23700
C473        C  0.00433900  0.26862523  0.08079218     0.26700
C474        C  0.98801297  0.29631915  0.06489166    -0.20500
C475        C  0.99415928  0.32814803  0.07447729    -0.10100
C476        C  0.01650246  0.33365772  0.10101272    -0.10700
C477        C  0.03472332  0.30556647  0.11532883    -0.03600
C478        C  0.02847388  0.27358571  0.10572489    -0.18700
H479        H  0.99887875  0.09634023  0.10812415     0.10400
H480        H  0.01543575  0.15101641  0.12090260     0.10400
H481        H  0.96277995  0.18885605  0.03327281     0.10100
H482        H  0.94654496  0.13443856  0.02064503     0.11200
H483        H  0.01342561  0.20932435  0.11192637     0.11300
H484        H  0.98311097  0.23431830  0.04620141     0.13200
H485        H  0.97019774  0.29336665  0.04483533     0.09700
H486        H  0.98160544  0.34814048  0.06023867     0.11800
H487        H  0.05353962  0.30849970  0.13450589     0.08400
H488        H  0.04299250  0.25299777  0.11764013     0.11200
C489        C  0.92359823  0.30878872  0.49520742    -0.03400
C490        C  0.89576505  0.28954895  0.49942796    -0.06000
C491        C  0.90041770  0.25530019  0.49395939    -0.21100
C492        C  0.93304175  0.23958124  0.48480782     0.24600
C493        C  0.96085579  0.25881688  0.48105242    -0.18700
C494        C  0.95621150  0.29277513  0.48618728    -0.08600
C495        C  0.93710653  0.20366926  0.47690272    -0.18900
C496        C  0.96755084  0.18475699  0.47997061    -0.23700
C497        C  0.97311279  0.14974574  0.46910876     0.26700
C498        C  0.99760130  0.12819021  0.48549840    -0.20500
C499        C  0.00471819  0.09555157  0.47492962    -0.10100
C500        C  0.98925129  0.08380229  0.44627816    -0.10700
C501        C  0.96368988  0.10548111  0.43062936    -0.03600
C502        C  0.95596607  0.13797704  0.44173035    -0.18700
H503        H  0.87038203  0.30096772  0.50643495     0.10400
H504        H  0.87846921  0.24104261  0.49676639     0.10400
H505        H  0.98611544  0.24792140  0.47310816     0.10100
H506        H  0.97846065  0.30651619  0.48277547     0.11200
H507        H  0.91437014  0.19253908  0.46846504     0.11300
H508        H  0.98933031  0.19503347  0.49154839     0.13200
H509        H  0.01102322  0.13653280  0.50684123     0.09700
H510        H  0.02296863  0.07941646  0.48896443     0.11800
H511        H  0.94883575  0.09745006  0.41018881     0.08400
H512        H  0.93695053  0.15400535  0.42845977     0.11200
C513        C  0.03653287  0.03566491  0.43311093    -0.03400
C514        C  0.04715324  0.00170922  0.42904161    -0.06000
C515        C  0.08193388  0.98943747  0.43216322    -0.21100
C516        C  0.10749131  0.01075955  0.43781270     0.24600
C517        C  0.09768421  0.04496176  0.43794253    -0.18700
C518        C  0.06277618  0.05725386  0.43492489    -0.08600
C519        C  0.14336839  0.99636509  0.44579363    -0.18900
C520        C  0.17151647  0.01281425  0.44192319    -0.23700
C521        C  0.20739337  0.00018473  0.45183600     0.26700
C522        C  0.23479006  0.01622639  0.43917147    -0.20500
C523        C  0.26871593  0.00779379  0.44956220    -0.10100
C524        C  0.27645364  0.98307843  0.47322820    -0.10700
C525        C  0.24926200  0.96611345  0.48533492    -0.03600
C526        C  0.21496257  0.97466558  0.47485149    -0.18700
H527        H  0.02804907  0.98428568  0.42601556     0.10400
H528        H  0.08873752  0.96304195  0.43121797     0.10400
H529        H  0.11653773  0.06241696  0.44185539     0.10100
H530        H  0.05664137  0.08366598  0.43504974     0.11200
H531        H  0.14646647  0.97126203  0.45481178     0.11300
H532        H  0.16846865  0.03678561  0.43024675     0.13200
H533        H  0.22987510  0.03591787  0.42149225     0.09700
H534        H  0.28891739  0.02127961  0.43937512     0.11800
H535        H  0.25428747  0.94716699  0.50374991     0.08400
H536        H  0.19451883  0.96208353  0.48574614     0.11200
C537        C  0.92680218  0.00903301  0.17674494    -0.03400
C538        C  0.93932177  0.03902470  0.18542937    -0.06000
C539        C  0.94412440  0.04720785  0.21836118    -0.21100
C540        C  0.93724849  0.02539659  0.24358874     0.24600
C541        C  0.92348029  0.99572995  0.23501238    -0.18700
C542        C  0.91812943  0.98775031  0.20183942    -0.08600
C543        C  0.94544950  0.03484949  0.27804883    -0.18900
C544        C  0.94929017  0.01377406  0.30355823    -0.23700
C545        C  0.96038768  0.02351218  0.33710546     0.26700
C546        C  0.95314693  0.00393422  0.36400589    -0.20500
C547        C  0.96404433  0.01142751  0.39572273    -0.10100
C548        C  0.98238362  0.03916046  0.40177254    -0.10700
C549        C  0.99114430  0.05764110  0.37425890    -0.03600
C550        C  0.97991274  0.05033976  0.34258620    -0.18700
H551        H  0.94610104  0.05595119  0.16657189     0.10400
H552        H  0.95436564  0.07033469  0.22407439     0.10400
H553        H  0.91698664  0.97852148  0.25361227     0.10100
H554        H  0.90862062  0.96438590  0.19575078     0.11200
H555        H  0.94981921  0.06041263  0.28210825     0.11300
H556        H  0.94440596  0.98828267  0.30005130     0.13200
H557        H  0.93926291  0.98241668  0.36042668     0.09700
H558        H  0.95901932  0.99450301  0.41509315     0.11800
H559        H  0.00689777  0.07792710  0.37739098     0.08400
H560        H  0.98769002  0.06516215  0.32242797     0.11200
C561        C  0.50398375  0.89081021  0.95269196    -0.03400
C562        C  0.48244249  0.91687804  0.93829176    -0.06000
C563        C  0.45989357  0.93794910  0.95747190    -0.21100
C564        C  0.45923980  0.93491300  0.99172790     0.24600
C565        C  0.48202562  0.91052483  0.00664108    -0.18700
C566        C  0.50430528  0.88911600  0.98743956    -0.08600
C567        C  0.43390341  0.95711250  0.01093090    -0.18900
C568        C  0.43999475  0.96754776  0.04164394    -0.23700
C569        C  0.41512022  0.99127707  0.05968637     0.26700
C570        C  0.42776422  0.01375277  0.08163396    -0.20500
C571        C  0.40499512  0.03663116  0.09866685    -0.10100
C572        C  0.36869782  0.03800177  0.09419551    -0.10700
C573        C  0.35628063  0.01379167  0.07340957    -0.03600
C574        C  0.37911950  0.99118660  0.05611892    -0.18700
H575        H  0.48300700  0.92179603  0.91226421     0.10400
H576        H  0.44319081  0.95713045  0.94546953     0.10400
H577        H  0.48214630  0.90740899  0.03305113     0.10100
H578        H  0.52141585  0.87045825  0.99971002     0.11200
H579        H  0.41039491  0.96694810  0.99843551     0.11300
H580        H  0.46496189  0.96048546  0.05298178     0.13200
H581        H  0.45542348  0.01385199  0.08537277     0.09700
H582        H  0.41575546  0.05365065  0.11539790     0.11800
H583        H  0.32897964  0.01120121  0.07086388     0.08400
H584        H  0.36848499  0.97303907  0.04061517     0.11200
C585        C  0.46099710  0.61392558  0.98890170    -0.03400
C586        C  0.44159565  0.64099166  0.00375305    -0.06000
C587        C  0.44797282  0.67326794  0.99618976    -0.21100
C588        C  0.47411504  0.67970011  0.97380113     0.24600
C589        C  0.49379846  0.65271721  0.95890258    -0.18700
C590        C  0.48725840  0.62024115  0.96636024    -0.08600
C591        C  0.47863183  0.71493965  0.96639306    -0.18900
C592        C  0.50715213  0.72610215  0.95278832    -0.23700
C593        C  0.51152630  0.76197585  0.94777436     0.26700
C594        C  0.53955368  0.77080059  0.92886665    -0.20500
C595        C  0.54511560  0.80399372  0.92441528    -0.10100
C596        C  0.52321563  0.82970372  0.93923373    -0.10700
C597        C  0.49440192  0.82059102  0.95715692    -0.03600
C598        C  0.48905368  0.78753025  0.96184110    -0.18700
H599        H  0.42118487  0.63731885  0.02117821     0.10400
H600        H  0.43229280  0.69343314  0.00803955     0.10400
H601        H  0.51374258  0.65644677  0.94106027     0.10100
H602        H  0.50270610  0.60007037  0.95431224     0.11200
H603        H  0.45709552  0.73243396  0.97355802     0.11300
H604        H  0.52862295  0.70846750  0.94547016     0.13200
H605        H  0.55727120  0.75191209  0.91738699     0.09700
H606        H  0.56681424  0.80972921  0.90939566     0.11800
H607        H  0.47508155  0.83874150  0.96728873     0.08400
H608        H  0.46713349  0.78260147  0.97676356     0.11200
C609        C  0.78352922  0.92872572  0.02216400    -0.03400
C610        C  0.76253454  0.92040483  0.04849915    -0.06000
C611        C  0.72944676  0.91011435  0.04252116    -0.21100
C612        C  0.71652979  0.90871615  0.01024875     0.24600
C613        C  0.73752487  0.91738951  0.98414238    -0.18700
C614        C  0.77034728  0.92729976  0.99001474    -0.08600
C615        C  0.68189969  0.89695320  0.00364818    -0.18900
C616        C  0.66218000  0.90852099  0.97807365    -0.23700
C617        C  0.62868689  0.89653133  0.96791696     0.26700
C618        C  0.60593485  0.91740591  0.94888756    -0.20500
C619        C  0.57491707  0.90705272  0.93726901    -0.10100
C620        C  0.56571740  0.87498191  0.94342625    -0.10700
C621        C  0.58874979  0.85405810  0.96282907    -0.03600
C622        C  0.61986131  0.86463836  0.97472332    -0.18700
H623        H  0.77206684  0.92089050  0.07348806     0.10400
H624        H  0.71393590  0.90322670  0.06307826     0.10400
H625        H  0.72908969  0.91565310  0.95889588     0.10100
H626        H  0.78570505  0.93342616  0.96905060     0.11200
H627        H  0.67246776  0.87906254  0.02024234     0.11300
H628        H  0.67065899  0.92875428  0.96387759     0.13200
H629        H  0.61204412  0.94209561  0.94315784     0.09700
H630        H  0.55771710  0.92433696  0.92337200     0.11800
H631        H  0.58264100  0.82979995  0.96984490     0.08400
H632        H  0.63703799  0.84768301  0.98895483     0.11200
C633        C  0.52348685  0.87036622  0.89478154    -0.03400
C634        C  0.55041042  0.87548960  0.87245585    -0.06000
C635        C  0.54366671  0.88008718  0.83890310    -0.21100
C636        C  0.51002250  0.87952117  0.82640059     0.24600
C637        C  0.48353778  0.87199978  0.84792189    -0.18700
C638        C  0.49038490  0.86682237  0.88138649    -0.08600
C639        C  0.50390033  0.88639891  0.79078947    -0.18900
C640        C  0.47299658  0.89868670  0.77845714    -0.23700
C641        C  0.46770426  0.90879547  0.74345660     0.26700
C642        C  0.43986642  0.93217545  0.73571594    -0.20500
C643        C  0.43438210  0.94307279  0.70337775    -0.10100
C644        C  0.45640614  0.93053346  0.67777356    -0.10700
C645        C  0.48384555  0.90652203  0.68539943    -0.03600
C646        C  0.48941942  0.89574541  0.71779261    -0.18700
H647        H  0.57693456  0.87572759  0.88048616     0.10400
H648        H  0.56485805  0.88463576  0.82266945     0.10400
H649        H  0.45757883  0.86976450  0.83903514     0.10100
H650        H  0.46934448  0.86114358  0.89728313     0.11200
H651        H  0.52645381  0.88383489  0.77479101     0.11300
H652        H  0.45119817  0.90405210  0.79508473     0.13200
H653        H  0.42249933  0.94241658  0.75487826     0.09700
H654        H  0.41275264  0.96127451  0.69845973     0.11800
H655        H  0.50110573  0.89597042  0.66631019     0.08400
H656        H  0.51048132  0.87692096  0.72244612     0.11200
C657        C  0.99952959  0.39593102  0.09492137    -0.03400
C658        C  0.96323550  0.39662191  0.09928203    -0.06000
C659        C  0.94027313  0.41939322  0.08264555    -0.21100
C660        C  0.95279823  0.44244841  0.06142644     0.24600
C661        C  0.98875204  0.44381167  0.05894652    -0.18700
C662        C  0.01173231  0.42135292  0.07585516    -0.08600
C663        C  0.92790174  0.46526183  0.04271654    -0.18900
C664        C  0.93523146  0.47622434  0.01255448    -0.23700
C665        C  0.91037083  0.49797416  0.99276112     0.26700
C666        C  0.91185943  0.49554694  0.95843344    -0.20500
C667        C  0.88976373  0.51628241  0.93878223    -0.10100
C668        C  0.86660569  0.54151523  0.95287447    -0.10700
C669        C  0.86451371  0.54282434  0.98763133    -0.03600
C670        C  0.88613815  0.52156898  0.00725371    -0.18700
H671        H  0.95264021  0.37860844  0.11485603     0.10400
H672        H  0.91261747  0.41844143  0.08572833     0.10400
H673        H  0.99922892  0.46259764  0.04430081     0.10100
H674        H  0.03895549  0.42458193  0.07390917     0.11200
H675        H  0.90215272  0.47125993  0.05300977     0.11300
H676        H  0.95969281  0.46735926  0.00095240     0.13200
H677        H  0.92991447  0.47709324  0.94671031     0.09700
H678        H  0.89104498  0.51181678  0.91264065     0.11800
H679        H  0.84645357  0.56105105  0.99963819     0.08400
H680        H  0.88446328  0.52428964  0.03370790     0.11200
C681        C  0.84770794  0.56084877  0.89459837    -0.03400
C682        C  0.88043278  0.56502844  0.88071396    -0.06000
C683        C  0.88744889  0.55825438  0.84748579    -0.21100
C684        C  0.86169504  0.54833589  0.82649405     0.24600
C685        C  0.82816579  0.54681574  0.83938513    -0.18700
C686        C  0.82117648  0.55343367  0.87272564    -0.08600
C687        C  0.87156442  0.53850102  0.79201514    -0.18900
C688        C  0.84896367  0.53329686  0.76775978    -0.23700
C689        C  0.86044522  0.52290375  0.73398319     0.26700
C690        C  0.84007507  0.53374572  0.70689341    -0.20500
C691        C  0.85061877  0.52494058  0.67478548    -0.10100
C692        C  0.88148683  0.50447038  0.66911277    -0.10700
C693        C  0.90118559  0.49263927  0.69640158    -0.03600
C694        C  0.89088443  0.50182581  0.72841800    -0.18700
H695        H  0.90120878  0.57215750  0.89614298     0.10400
H696        H  0.91340276  0.56027478  0.83827396     0.10400
H697        H  0.80724202  0.53979688  0.82421097     0.10100
H698        H  0.79480043  0.55246481  0.88095705     0.11200
H699        H  0.89908854  0.53586338  0.78622880     0.11300
H700        H  0.82130888  0.53833362  0.77189035     0.13200
H701        H  0.81622791  0.54957711  0.71056527     0.09700
H702        H  0.83451359  0.53407327  0.65442622     0.11800
H703        H  0.92484958  0.47647635  0.69304750     0.08400
H704        H  0.90659048  0.49209496  0.74878829     0.11200
C705        C  0.59049155  0.48600086  0.01037710    -0.03400
C706        C  0.60516733  0.47209738  0.98128781    -0.06000
C707        C  0.63864698  0.47778604  0.97176457    -0.21100
C708        C  0.65806431  0.49817688  0.99061377     0.24600
C709        C  0.64402356  0.51107637  0.02056328    -0.18700
C710        C  0.61051748  0.50479987  0.03047670    -0.08600
C711        C  0.69263773  0.50512428  0.97781861    -0.18900
C712        C  0.70735980  0.53311239  0.98416013    -0.23700
C713        C  0.74082750  0.54134426  0.96929816     0.26700
C714        C  0.75069252  0.57328691  0.97359223    -0.20500
C715        C  0.78224084  0.58204498  0.96114703    -0.10100
C716        C  0.80501023  0.55913137  0.94339772    -0.10700
C717        C  0.79486968  0.52702383  0.93935377    -0.03600
C718        C  0.76346379  0.51827462  0.95191430    -0.18700
H719        H  0.59030012  0.45739638  0.96541869     0.10400
H720        H  0.64893089  0.46716773  0.94886581     0.10400
H721        H  0.65868294  0.52613013  0.03618999     0.10100
H722        H  0.59968284  0.51586014  0.05296312     0.11200
H723        H  0.70470404  0.48743380  0.96033285     0.11300
H724        H  0.69358465  0.55162922  0.99989612     0.13200
H725        H  0.73413973  0.59153575  0.98724678     0.09700
H726        H  0.78890776  0.60650538  0.96680150     0.11800
H727        H  0.81191514  0.50829798  0.92684039     0.08400
H728        H  0.75785898  0.49309168  0.94851566     0.11200
C729        C  0.84929878  0.60244368  0.93888596    -0.03400
C730        C  0.82932922  0.62823733  0.92250984    -0.06000
C731        C  0.83557128  0.66119849  0.92703880    -0.21100
C732        C  0.86201489  0.66963460  0.94802468     0.24600
C733        C  0.88299835  0.64412616  0.96339778    -0.18700
C734        C  0.87704596  0.61118950  0.95862804    -0.08600
C735        C  0.86809782  0.70502452  0.95195145    -0.18900
C736        C  0.88440864  0.71676105  0.97817120    -0.23700
C737        C  0.89216847  0.75164942  0.98258793     0.26700
C738        C  0.91567379  0.75846242  0.00732556    -0.20500
C739        C  0.92386106  0.79056520  0.01306920    -0.10100
C740        C  0.90853216  0.81701239  0.99436758    -0.10700
C741        C  0.88489738  0.81034801  0.96955576    -0.03600
C742        C  0.87676471  0.77805794  0.96370685    -0.18700
H743        H  0.80860080  0.62273265  0.90618598     0.10400
H744        H  0.81949911  0.68022985  0.91418581     0.10400
H745        H  0.90491961  0.64925381  0.97830701     0.10100
H746        H  0.89519174  0.59289913  0.96994586     0.11200
H747        H  0.85848772  0.72163762  0.93259933     0.11300
H748        H  0.89307894  0.69988477  0.99767554     0.13200
H749        H  0.92787946  0.73877419  0.02237414     0.09700
H750        H  0.94202655  0.79462751  0.03251724     0.11800
H751        H  0.87243333  0.83011801  0.95479425     0.08400
H752        H  0.85800952  0.77423121  0.94481258     0.11200
C753        C  0.48232601  0.53620208  0.59650175    -0.03400
C754        C  0.50375440  0.51300720  0.57766351    -0.06000
C755        C  0.48966904  0.49284367  0.55450208    -0.21100
C756        C  0.45377607  0.49386373  0.55029808     0.24600
C757        C  0.43197146  0.51471594  0.57075458    -0.18700
C758        C  0.44607175  0.53522596  0.59379620    -0.08600
C759        C  0.44038177  0.47394102  0.52335043    -0.18900
C760        C  0.40866869  0.46326079  0.52350876    -0.23700
C761        C  0.39656971  0.44242549  0.49673523     0.26700
C762        C  0.37510878  0.41802716  0.50464473    -0.20500
C763        C  0.36321211  0.39796316  0.48015253    -0.10100
C764        C  0.37205479  0.40178484  0.44671248    -0.10700
C765        C  0.39256987  0.42746076  0.43884143    -0.03600
C766        C  0.40506163  0.44715466  0.46358793    -0.18700
H767        H  0.53160111  0.51015823  0.58011787     0.10400
H768        H  0.50703043  0.47636636  0.53964006     0.10400
H769        H  0.40407915  0.51627646  0.56821007     0.10100
H770        H  0.42858609  0.55169448  0.60851743     0.11200
H771        H  0.45803538  0.46644135  0.50328241     0.11300
H772        H  0.39202118  0.46773116  0.54489123     0.13200
H773        H  0.36773155  0.41427234  0.52995452     0.09700
H774        H  0.34662965  0.37932640  0.48727411     0.11800
H775        H  0.39825104  0.43338938  0.41369904     0.08400
H776        H  0.42046872  0.46676899  0.45665602     0.11200
C777        C  0.53740097  0.55838179  0.61826806    -0.03400
C778        C  0.55351822  0.56714266  0.58873686    -0.06000
C779        C  0.58919846  0.56046127  0.58384367    -0.21100
C780        C  0.61002331  0.54419400  0.60792398     0.24600
C781        C  0.59509493  0.53747654  0.63830132    -0.18700
C782        C  0.55945254  0.54544834  0.64382308    -0.08600
C783        C  0.64739562  0.53549367  0.60085688    -0.18900
C784        C  0.66397914  0.50551909  0.60712331    -0.23700
C785        C  0.70068981  0.49644763  0.59698679     0.26700
C786        C  0.71165332  0.46426069  0.58614122    -0.20500
C787        C  0.74595415  0.45587944  0.57534097    -0.10100
C788        C  0.77007311  0.47947185  0.57574453    -0.10700
C789        C  0.75904085  0.51138085  0.58766584    -0.03600
C790        C  0.72496485  0.51972334  0.59804819    -0.18700
H791        H  0.53807870  0.57778662  0.56858854     0.10400
H792        H  0.60033077  0.56669592  0.56051089     0.10400
H793        H  0.61107467  0.52632325  0.65786326     0.10100
H794        H  0.54974554  0.54062768  0.66797270     0.11200
H795        H  0.66064413  0.55316363  0.58692653     0.11300
H796        H  0.64958876  0.48658637  0.61772012     0.13200
H797        H  0.69342990  0.44578870  0.58533750     0.09700
H798        H  0.75346844  0.43112373  0.56647937     0.11800
H799        H  0.77671878  0.53031027  0.58887092     0.08400
H800        H  0.71772169  0.54444762  0.60714150     0.11200
C801        C  0.42474433  0.49987785  0.87268017    -0.03400
C802        C  0.41108001  0.47863236  0.84993498    -0.06000
C803        C  0.41790986  0.48151197  0.81623075    -0.21100
C804        C  0.43776078  0.50612035  0.80470898     0.24600
C805        C  0.45070429  0.52779332  0.82754209    -0.18700
C806        C  0.44428064  0.52467367  0.86106367    -0.08600
C807        C  0.44596857  0.50810268  0.76906452    -0.18900
C808        C  0.44983023  0.53706817  0.75447667    -0.23700
C809        C  0.45909816  0.54096673  0.71935003     0.26700
C810        C  0.44965380  0.57138865  0.70459062    -0.20500
C811        C  0.46035675  0.57780764  0.67272545    -0.10100
C812        C  0.48264577  0.55452067  0.65483589    -0.10700
C813        C  0.48959578  0.52289963  0.66897933    -0.03600
C814        C  0.47853381  0.51634499  0.70097090    -0.18700
H815        H  0.39652262  0.45891544  0.85831600     0.10400
H816        H  0.40792510  0.46435100  0.79913993     0.10400
H817        H  0.46691445  0.54645640  0.81973203     0.10100
H818        H  0.45545535  0.54118213  0.87807750     0.11200
H819        H  0.44756027  0.48561422  0.75452199     0.11300
H820        H  0.44474226  0.55960187  0.76878015     0.13200
H821        H  0.43378521  0.59047190  0.71785507     0.09700
H822        H  0.45054237  0.60125454  0.66260975     0.11800
H823        H  0.50482065  0.50351584  0.65556317     0.08400
H824        H  0.48621402  0.49244509  0.71153088     0.11200
C825        C  0.48523392  0.59785435  0.60911315    -0.03400
C826        C  0.46598999  0.60572696  0.58014695    -0.06000
C827        C  0.45511700  0.63840671  0.57203282    -0.21100
C828        C  0.46329348  0.66447544  0.59215297     0.24600
C829        C  0.48456387  0.65720091  0.61969046    -0.18700
C830        C  0.49584390  0.62450839  0.62761688    -0.08600
C831        C  0.45072354  0.69887460  0.58262093    -0.18900
C832        C  0.44669468  0.72413028  0.60422657    -0.23700
C833        C  0.43726469  0.75902576  0.59457041     0.26700
C834        C  0.44977941  0.78377190  0.61390058    -0.20500
C835        C  0.44402559  0.81677456  0.60476303    -0.10100
C836        C  0.42491698  0.82603423  0.57635485    -0.10700
C837        C  0.41046029  0.80156362  0.55797720    -0.03600
C838        C  0.41678738  0.76824513  0.56685879    -0.18700
H839        H  0.45950460  0.58703194  0.56302641     0.10400
H840        H  0.44000833  0.64332412  0.54989927     0.10400
H841        H  0.49312185  0.67662325  0.63491583     0.10100
H842        H  0.51214941  0.61981723  0.64901790     0.11200
H843        H  0.44469299  0.70338199  0.55688180     0.11300
H844        H  0.45260466  0.71958774  0.62996927     0.13200
H845        H  0.46521001  0.77744247  0.63556323     0.09700
H846        H  0.45520395  0.83510442  0.61965210     0.11800
H847        H  0.39556516  0.80803147  0.53604228     0.08400
H848        H  0.40584273  0.74985186  0.55194542     0.11200
C849        C  0.86920250  0.89191876  0.60709701    -0.03400
C850        C  0.86303561  0.88836031  0.57306627    -0.06000
C851        C  0.87500026  0.91006698  0.55021997    -0.21100
C852        C  0.89298745  0.93634135  0.56065038     0.24600
C853        C  0.89759892  0.94126399  0.59448668    -0.18700
C854        C  0.88568116  0.91959710  0.61735222    -0.08600
C855        C  0.90599521  0.95859079  0.53577725    -0.18900
C856        C  0.93401965  0.97487667  0.54098300    -0.23700
C857        C  0.94913978  0.99451349  0.51518982     0.26700
C858        C  0.98510647  0.99519935  0.51430346    -0.20500
C859        C  0.00065015  0.01197383  0.48943421    -0.10100
C860        C  0.98059051  0.02832132  0.46426957    -0.10700
C861        C  0.94413272  0.03017876  0.46740749    -0.03600
C862        C  0.92859423  0.01284936  0.49205403    -0.18700
H863        H  0.84902781  0.86840628  0.56418165     0.10400
H864        H  0.87041204  0.90615927  0.52429139     0.10400
H865        H  0.90963574  0.96236086  0.60352657     0.10100
H866        H  0.88853670  0.92557959  0.64302176     0.11200
H867        H  0.89384838  0.95960094  0.51169737     0.11300
H868        H  0.94846530  0.97116675  0.56373038     0.13200
H869        H  0.00135522  0.98226365  0.53269538     0.09700
H870        H  0.02846748  0.01231947  0.49054281     0.11800
H871        H  0.92767020  0.04434740  0.45004133     0.08400
H872        H  0.90058110  0.01404775  0.49315990     0.11200
C873        C  0.86684994  0.83155663  0.62423172    -0.03400
C874        C  0.85316471  0.80653137  0.64251800    -0.06000
C875        C  0.86438974  0.77332817  0.63717317    -0.21100
C876        C  0.89043480  0.76380237  0.61403302     0.24600
C877        C  0.90580460  0.78852909  0.59702781    -0.18700
C878        C  0.89446643  0.82183753  0.60228846    -0.08600
C879        C  0.90033745  0.72787325  0.60882684    -0.18900
C880        C  0.91928025  0.71439160  0.58330267    -0.23700
C881        C  0.92371700  0.67814044  0.57684492     0.26700
C882        C  0.95173079  0.66411712  0.55765590    -0.20500
C883        C  0.95494191  0.63034185  0.54966130    -0.10100
C884        C  0.92987247  0.61005773  0.56041665    -0.10700
C885        C  0.90211522  0.62425154  0.57978616    -0.03600
C886        C  0.89893753  0.65766011  0.58766077    -0.18700
H887        H  0.83312301  0.81279888  0.66072404     0.10400
H888        H  0.85239172  0.75493136  0.65113031     0.10400
H889        H  0.92697592  0.78252233  0.58002677     0.10100
H890        H  0.90824361  0.83971668  0.58953190     0.11200
H891        H  0.89007286  0.71163315  0.62661719     0.11300
H892        H  0.93100015  0.72999695  0.56587884     0.13200
H893        H  0.97099389  0.67938383  0.54862053     0.09700
H894        H  0.97656272  0.62031032  0.53458914     0.11800
H895        H  0.88214482  0.60964235  0.58853052     0.08400
H896        H  0.87617663  0.66737453  0.60128149     0.11200
C897        C  0.94889540  0.91509098  0.88140445    -0.03400
C898        C  0.96867857  0.92837354  0.85666855    -0.06000
C899        C  0.96334228  0.92074677  0.82335582    -0.21100
C900        C  0.93809958  0.89986307  0.81418001     0.24600
C901        C  0.92029500  0.88477820  0.83917271    -0.18700
C902        C  0.92546062  0.89243129  0.87216053    -0.08600
C903        C  0.93030083  0.89450538  0.77863423    -0.18900
C904        C  0.89876992  0.88718270  0.76829156    -0.23700
C905        C  0.88849657  0.88257389  0.73332657     0.26700
C906        C  0.91253012  0.87597020  0.70763059    -0.20500
C907        C  0.90110084  0.87115045  0.67542605    -0.10100
C908        C  0.86535949  0.87381239  0.66758870    -0.10700
C909        C  0.84158953  0.87894131  0.69391274    -0.03600
C910        C  0.85302462  0.88339622  0.72605349    -0.18700
H911        H  0.98707080  0.94572467  0.86291230     0.10400
H912        H  0.97798991  0.93219819  0.80465628     0.10400
H913        H  0.90199605  0.86721730  0.83343286     0.10100
H914        H  0.91034424  0.88101146  0.89052649     0.11200
H915        H  0.95016670  0.89875386  0.76075837     0.11300
H916        H  0.87833321  0.88601980  0.78640645     0.13200
H917        H  0.94012200  0.87385610  0.71226669     0.09700
H918        H  0.92030224  0.86577422  0.65625764     0.11800
H919        H  0.81400154  0.87886979  0.69023086     0.08400
H920        H  0.83386369  0.88742430  0.74546921     0.11200
C921        C  0.58331515  0.95959165  0.57688943    -0.03400
C922        C  0.60896955  0.97689950  0.56238591    -0.06000
C923        C  0.64413329  0.96848817  0.56959674    -0.21100
C924        C  0.65434308  0.94257302  0.59126941     0.24600
C925        C  0.62855859  0.92607502  0.60658814    -0.18700
C926        C  0.59359398  0.93440238  0.59940640    -0.08600
C927        C  0.69186717  0.93386000  0.59816252    -0.18900
C928        C  0.70502419  0.90353997  0.60776070    -0.23700
C929        C  0.74248992  0.89469303  0.61438160     0.26700
C930        C  0.75713348  0.86251202  0.60784589    -0.20500
C931        C  0.79244355  0.85339955  0.61328795    -0.10100
C932        C  0.81399472  0.87591357  0.62699472    -0.10700
C933        C  0.79869993  0.90823308  0.63369109    -0.03600
C934        C  0.76359994  0.91746098  0.62756591    -0.18700
H935        H  0.60197166  0.99626558  0.54480466     0.10400
H936        H  0.66347427  0.98182621  0.55771002     0.10400
H937        H  0.63518598  0.90685056  0.62436651     0.10100
H938        H  0.57454197  0.92077664  0.61137553     0.11200
H939        H  0.70938316  0.95256580  0.59368417     0.11300
H940        H  0.68822549  0.88380651  0.60897142     0.13200
H941        H  0.74136692  0.84455972  0.59748339     0.09700
H942        H  0.80255852  0.82895032  0.60564855     0.11800
H943        H  0.81425996  0.92656749  0.64359534     0.08400
H944        H  0.75299491  0.94234073  0.63349616     0.11200
loop_ 
_geom_bond_atom_site_label_1 
_geom_bond_atom_site_label_2 
_geom_bond_distance 
_geom_bond_site_symmetry_2 
_ccdc_geom_bond_type 
C1          C849   1.550       .  S
C1          C873   1.555       .  S
C1          C908   1.556       .  S
C1          C932   1.557       .  S
C2          C753   1.557       .  S
C2          C777   1.561       .  S
C2          C812   1.562       .  S
C2          C825   1.563       .  S
C3          C668   1.559       .  S
C3          C681   1.559       .  S
C3          C716   1.557       .  S
C3          C729   1.558       .  S
C4          C561   1.558       .  S
C4          C596   1.559       .  S
C4          C620   1.557       .  S
C4          C633   1.557       .  S
C5          C500   1.556       .  S
C5          C513   1.554   1_655  S
C5          C548   1.555       .  S
C5          C860   1.551       .  S
C6          C417   1.562       .  S
C6          C452   1.559       .  S
C6          C476   1.560       .  S
C6          C657   1.558   1_455  S
C7          C345   1.561       .  S
C7          C380   1.562       .  S
C7          C393   1.557       .  S
C7          C572   1.560       .  S
C8          C284   1.555       .  S
C8          C308   1.554       .  S
C8          C321   1.556       .  S
C8          C764   1.553       .  S
Zr9          O10   2.440       .  S
Zr9          O11   2.437       .  S
Zr9          O12   2.409       .  S
Zr9          O15   2.403   1_556  S
Zr9          O17   2.377       .  S
Zr9          O18   2.376   1_556  S
Zr9          O19   2.402       .  S
Zr9          O20   2.398   1_556  S
O10          H66   0.990       .  S
O10          H74   0.990       .  S
O11          C31   1.285   1_556  A
O12          C33   1.281       .  A
O13         Zr23   2.470       .  S
O13          C32   1.291       .  A
O14         Zr22   2.474       .  S
O14          C33   1.292       .  A
O15          C32   1.281       .  A
O16         Zr24   2.428       .  S
O16          C31   1.284       .  A
O17         Zr22   2.396       .  S
O17         Zr24   2.379   1_556  S
O18         Zr23   2.391       .  S
O18         Zr24   2.375       .  S
O18          H53   0.966       .  S
O19         Zr22   2.405       .  S
O19         Zr39   2.402   1_566  S
O19          H56   0.966       .  S
O20         Zr23   2.396       .  S
O20         Zr39   2.403   1_565  S
Zr21         O46   2.441   1_655  S
Zr21         O40   2.419   1_565  S
Zr21         O48   2.415   1_565  S
Zr21         O36   2.407   1_665  S
Zr21         O27   2.396       .  S
Zr21         O28   2.400       .  S
Zr21         O29   2.378   1_565  S
Zr21         O30   2.378   1_565  S
Zr22         O41   2.436   1_655  S
Zr22         O34   2.435   1_655  S
Zr22         O35   2.469   1_656  S
Zr22         O28   2.402   1_556  S
Zr22         O29   2.398   1_566  S
Zr23         O25   2.434   1_565  S
Zr23         O47   2.436       .  S
Zr23         O49   2.464       .  S
Zr23         O27   2.398       .  S
Zr23         O30   2.399   1_565  S
Zr24         O50   2.437       .  S
Zr24         O51   2.435   1_655  S
Zr24         O26   2.437   1_655  S
Zr24         O27   2.396       .  S
Zr24         O28   2.398       .  S
O25          H62   0.990   1_545  S
O26          H57   0.990       .  S
O26          H71   0.990       .  S
O28          H54   0.966   1_655  S
O29         Zr39   2.367       .  S
O30         Zr39   2.375       .  S
O30          H55   0.966       .  S
C31         C740   1.489   1_554  S
C32         C609   1.489       .  S
C33         C897   1.492       .  S
O34          H70   0.990       .  S
O35          C37   1.292   1_565  A
O36          C37   1.282       .  A
C37         C404   1.486       .  S
O38         Zr39   2.434   1_556  S
O38          H67   0.990       .  S
Zr39         O42   2.436   1_554  S
Zr39         O43   2.439       .  S
Zr39         O44   2.450       .  S
O40          C45   1.282       .  A
O41          H58   0.990   1_565  S
O41          H73   0.990       .  S
O42          H59   0.990       .  S
O43          H63   0.990       .  S
O43          H72   0.990       .  S
O44          C45   1.287       .  A
C45         C465   1.490       .  S
O46          H65   0.990       .  S
O46          H69   0.990       .  S
O47          H61   0.990       .  S
O47          H68   0.990       .  S
O48          C52   1.283   1_545  A
O49          C52   1.290       .  A
O50          H60   0.990       .  S
O51          H64   0.990       .  S
C52         C537   1.482   1_565  S
Zr75         O76   2.439       .  S
Zr75         O77   2.438       .  S
Zr75         O78   2.398       .  S
Zr75         O81   2.411       .  S
Zr75         O83   2.374       .  S
Zr75         O84   2.375       .  S
Zr75         O85   2.403       .  S
Zr75         O86   2.398       .  S
O76         H132   0.990       .  S
O76         H140   0.990       .  S
O77          C97   1.286       .  A
O78          C99   1.279       .  A
O79         Zr89   2.461       .  S
O79          C98   1.290       .  A
O80         Zr88   2.480       .  S
O80          C99   1.294       .  A
O81          C98   1.283       .  A
O82         Zr90   2.428       .  S
O82          C97   1.283       .  A
O83         Zr88   2.393       .  S
O83         Zr90   2.373       .  S
O84         Zr89   2.396       .  S
O84         Zr90   2.370       .  S
O84         H119   0.966       .  S
O85         Zr88   2.400       .  S
O85        Zr105   2.397       .  S
O85         H122   0.966       .  S
O86         Zr89   2.400       .  S
O86        Zr105   2.404       .  S
Zr87        O112   2.443   1_655  S
Zr87        O106   2.440       .  S
Zr87        O114   2.401   1_655  S
Zr87        O102   2.403       .  S
Zr87         O93   2.399       .  S
Zr87         O94   2.403       .  S
Zr87         O95   2.378       .  S
Zr87         O96   2.376       .  S
Zr88        O107   2.436       .  S
Zr88        O100   2.434       .  S
Zr88        O101   2.476       .  S
Zr88         O94   2.403       .  S
Zr88         O95   2.398       .  S
Zr89         O91   2.435       .  S
Zr89        O113   2.437   1_655  S
Zr89        O115   2.462   1_655  S
Zr89         O93   2.395       .  S
Zr89         O96   2.392       .  S
Zr90        O116   2.436       .  S
Zr90        O117   2.437       .  S
Zr90         O92   2.439       .  S
Zr90         O93   2.400       .  S
Zr90         O94   2.396       .  S
O91         H128   0.990       .  S
O92         H123   0.990       .  S
O92         H137   0.990       .  S
O94         H120   0.965       .  S
O95        Zr105   2.377       .  S
O96        Zr105   2.369       .  S
O96         H121   0.966       .  S
C97         C692   1.489       .  S
C98         C884   1.490       .  S
C99         C788   1.494       .  S
O100        H136   0.990       .  S
O101        C103   1.293       .  A
O102        C103   1.281       .  A
C103        C489   1.492       .  S
O104       Zr105   2.435       .  S
O104        H133   0.990       .  S
Zr105       O108   2.434       .  S
Zr105       O109   2.437       .  S
Zr105       O110   2.436       .  S
O106        C111   1.286       .  A
O107        H124   0.990       .  S
O107        H139   0.990       .  S
O108        H125   0.990       .  S
O109        H129   0.990       .  S
O109        H138   0.990       .  S
O110        C111   1.285       .  A
C111        C428   1.493       .  S
O112        H131   0.991       .  S
O112        H135   0.990       .  S
O113        H127   0.990       .  S
O113        H134   0.990       .  S
O114        C118   1.281       .  A
O115        C118   1.290       .  A
O116        H126   0.990       .  S
O117        H130   0.990       .  S
C118        C273   1.485       .  S
Zr141       O142   2.443       .  S
Zr141       O143   2.442       .  S
Zr141       O144   2.417       .  S
Zr141       O147   2.417       .  S
Zr141       O149   2.378       .  S
Zr141       O150   2.377   1_556  S
Zr141       O151   2.410       .  S
Zr141       O152   2.393   1_556  S
O142        H198   0.990       .  S
O142        H206   0.990       .  S
O143        C163   1.284       .  A
O144        C165   1.280       .  A
O145       Zr155   2.455       .  S
O145        C164   1.288       .  A
O146       Zr154   2.446       .  S
O146        C165   1.286       .  A
O147        C164   1.282   1_556  A
O148       Zr156   2.443       .  S
O148        C163   1.286   1_554  A
O149       Zr154   2.405       .  S
O149       Zr156   2.378   1_556  S
O150       Zr155   2.398       .  S
O150       Zr156   2.378       .  S
O150        H185   0.966       .  S
O151       Zr154   2.409       .  S
O151       Zr171   2.398       .  S
O151        H188   0.965       .  S
O152       Zr155   2.393       .  S
O152       Zr171   2.392   1_554  S
Zr153       O178   2.441       .  S
Zr153       O172   2.441       .  S
Zr153       O180   2.415       .  S
Zr153       O168   2.413       .  S
Zr153       O159   2.406       .  S
Zr153       O160   2.404       .  S
Zr153       O161   2.372       .  S
Zr153       O162   2.377       .  S
Zr154       O173   2.438       .  S
Zr154       O166   2.434       .  S
Zr154       O167   2.465       .  S
Zr154       O160   2.398   1_556  S
Zr154       O161   2.394   1_556  S
Zr155       O157   2.436       .  S
Zr155       O179   2.438       .  S
Zr155       O181   2.452       .  S
Zr155       O159   2.401       .  S
Zr155       O162   2.403       .  S
Zr156       O182   2.435       .  S
Zr156       O183   2.435       .  S
Zr156       O158   2.438       .  S
Zr156       O159   2.406       .  S
Zr156       O160   2.403       .  S
O157        H194   0.990       .  S
O158        H189   0.990       .  S
O158        H203   0.990       .  S
O160        H186   0.966       .  S
O161       Zr171   2.373   1_554  S
O162       Zr171   2.377   1_554  S
O162        H187   0.967       .  S
C163        C585   1.497       .  S
C164        C705   1.479       .  S
C165        C801   1.477       .  S
O166        H202   0.990       .  S
O167        C169   1.290   1_556  A
O168        C169   1.282       .  A
C169        C441   1.491       .  S
O170       Zr171   2.436       .  S
O170        H199   0.990       .  S
Zr171       O174   2.437       .  S
Zr171       O175   2.436   1_556  S
Zr171       O176   2.435   1_556  S
O172        C177   1.285       .  A
O173        H190   0.990       .  S
O173        H205   0.990       .  S
O174        H191   0.990       .  S
O175        H195   0.990       .  S
O175        H204   0.990       .  S
O176        C177   1.285       .  A
C177        C356   1.495       .  S
O178        H197   0.991       .  S
O178        H201   0.990       .  S
O179        H193   0.990       .  S
O179        H200   0.990       .  S
O180        C184   1.281       .  A
O181        C184   1.287       .  A
O182        H192   0.990       .  S
O183        H196   0.990       .  S
C184        C297   1.483       .  S
Zr207       O208   2.439       .  S
Zr207       O209   2.428       .  S
Zr207       O210   2.413       .  S
Zr207       O213   2.407       .  S
Zr207       O215   2.376       .  S
Zr207       O216   2.376       .  S
Zr207       O217   2.401       .  S
Zr207       O218   2.399       .  S
O208        H264   0.990       .  S
O208        H272   0.990       .  S
O209        C229   1.283       .  A
O210        C231   1.282       .  A
O211       Zr221   2.465       .  S
O211        C230   1.291       .  A
O212       Zr220   2.458   1_565  S
O212        C231   1.290       .  A
O213        C230   1.282       .  A
O214       Zr222   2.443       .  S
O214        C229   1.286       .  A
O215       Zr220   2.401   1_565  S
O215       Zr222   2.375       .  S
O216       Zr221   2.393       .  S
O216       Zr222   2.370       .  S
O216        H251   0.965       .  S
O217       Zr220   2.403   1_565  S
O217       Zr237   2.395       .  S
O217        H254   0.966       .  S
O218       Zr221   2.397       .  S
O218       Zr237   2.398       .  S
Zr219       O244   2.443       .  S
Zr219       O238   2.436       .  S
Zr219       O246   2.404       .  S
Zr219       O234   2.406       .  S
Zr219       O225   2.402   1_545  S
Zr219       O226   2.401       .  S
Zr219       O227   2.373       .  S
Zr219       O228   2.377   1_545  S
Zr220       O239   2.436       .  S
Zr220       O232   2.435       .  S
Zr220       O233   2.473       .  S
Zr220       O226   2.398       .  S
Zr220       O227   2.392       .  S
Zr221       O223   2.435       .  S
Zr221       O245   2.437       .  S
Zr221       O247   2.468       .  S
Zr221       O225   2.398       .  S
Zr221       O228   2.394       .  S
Zr222       O248   2.435       .  S
Zr222       O249   2.435   1_565  S
Zr222       O224   2.437   1_565  S
Zr222       O225   2.407       .  S
Zr222       O226   2.400   1_565  S
O223        H260   0.990       .  S
O224        H255   0.990       .  S
O224        H269   0.990       .  S
O226        H252   0.966       .  S
O227       Zr237   2.378   1_545  S
O228       Zr237   2.374       .  S
O228        H253   0.966       .  S
C229        C644   1.490       .  S
C230        C836   1.483       .  S
C231        C921   1.486       .  S
O232        H268   0.990       .  S
O233        C235   1.292       .  A
O234        C235   1.281       .  A
C235        C332   1.491       .  S
O236       Zr237   2.436       .  S
O236        H265   0.990       .  S
Zr237       O240   2.435       .  S
Zr237       O241   2.437       .  S
Zr237       O242   2.439       .  S
O238        C243   1.286   1_545  A
O239        H256   0.990       .  S
O239        H271   0.990       .  S
O240        H257   0.990       .  S
O241        H261   0.990       .  S
O241        H270   0.990       .  S
O242        C243   1.286       .  A
C243        C369   1.492   1_565  S
O244        H263   0.990       .  S
O244        H267   0.990       .  S
O245        H259   0.990       .  S
O245        H266   0.990       .  S
O246        C250   1.281   1_545  A
O247        C250   1.291       .  A
O248        H258   0.989       .  S
O249        H262   0.990       .  S
C250        C524   1.489       .  S
C273        C274   1.408       .  A
C273        C278   1.405       .  A
C274        C275   1.393       .  A
C274        H287   1.083       .  S
C275        C276   1.400       .  A
C275        H288   1.084       .  S
C276        C277   1.411       .  A
C276        C279   1.488       .  S
C277        C278   1.404       .  A
C277        H289   1.081       .  S
C278        H290   1.083       .  S
C279        C280   1.344       .  D
C279        H291   1.086       .  S
C280        C281   1.487       .  S
C280        H292   1.085       .  S
C281        C282   1.398       .  A
C281        C286   1.408       .  A
C282        C283   1.395       .  A
C282        H293   1.083       .  S
C283        C284   1.415       .  A
C283        H294   1.083       .  S
C284        C285   1.413       .  A
C285        C286   1.401       .  A
C285        H295   1.080       .  S
C286        H296   1.082       .  S
C297        C298   1.406       .  A
C297        C302   1.406       .  A
C298        C299   1.405       .  A
C298        H311   1.083       .  S
C299        C300   1.407       .  A
C299        H312   1.083       .  S
C300        C301   1.406       .  A
C300        C303   1.491       .  S
C301        C302   1.393       .  A
C301        H313   1.082       .  S
C302        H314   1.083       .  S
C303        C304   1.349       .  D
C303        H315   1.086       .  S
C304        C305   1.485       .  S
C304        H316   1.086       .  S
C305        C306   1.405       .  A
C305        C310   1.399       .  A
C306        C307   1.403       .  A
C306        H317   1.082       .  S
C307        C308   1.415       .  A
C307        H318   1.083       .  S
C308        C309   1.414       .  A
C309        C310   1.393       .  A
C309        H319   1.080       .  S
C310        H320   1.084       .  S
C321        C322   1.411       .  A
C321        C326   1.415       .  A
C322        C323   1.400       .  A
C322        H335   1.083       .  S
C323        C324   1.405       .  A
C323        H336   1.083       .  S
C324        C325   1.407       .  A
C324        C327   1.499       .  S
C325        C326   1.400       .  A
C325        H337   1.079       .  S
C326        H338   1.080       .  S
C327        C328   1.356       .  D
C327        H339   1.082       .  S
C328        C329   1.501       .  S
C328        H340   1.082       .  S
C329        C330   1.410       .  A
C329        C334   1.408       .  A
C330        C331   1.405       .  A
C330        H341   1.083       .  S
C331        C332   1.404       .  A
C331        H342   1.083       .  S
C332        C333   1.409       .  A
C333        C334   1.398       .  A
C333        H343   1.083       .  S
C334        H344   1.079       .  S
C345        C346   1.414       .  A
C345        C350   1.415       .  A
C346        C347   1.401       .  A
C346        H359   1.083       .  S
C347        C348   1.403       .  A
C347        H360   1.083       .  S
C348        C349   1.408       .  A
C348        C351   1.499       .  S
C349        C350   1.401       .  A
C349        H361   1.080       .  S
C350        H362   1.079       .  S
C351        C352   1.351       .  D
C351        H363   1.085       .  S
C352        C353   1.494       .  S
C352        H364   1.084       .  S
C353        C354   1.404       .  A
C353        C358   1.409       .  A
C354        C355   1.399       .  A
C354        H365   1.083       .  S
C355        C356   1.407       .  A
C355        H366   1.083       .  S
C356        C357   1.410       .  A
C357        C358   1.406       .  A
C357        H367   1.083       .  S
C358        H368   1.082       .  S
C369        C370   1.407       .  A
C369        C374   1.409   1_545  A
C370        C371   1.400       .  A
C370        H383   1.083       .  S
C371        C372   1.404       .  A
C371        H384   1.083       .  S
C372        C373   1.409   1_545  A
C372        C375   1.494       .  S
C373        C374   1.404       .  A
C373        H385   1.082       .  S
C374        H386   1.083       .  S
C375        C376   1.351       .  D
C375        H387   1.085       .  S
C376        C377   1.494       .  S
C376        H388   1.085   1_545  S
C377        C378   1.402       .  A
C377        C382   1.406       .  A
C378        C379   1.401       .  A
C378        H389   1.083   1_545  S
C379        C380   1.415       .  A
C379        H390   1.083       .  S
C380        C381   1.416       .  A
C381        C382   1.401       .  A
C381        H391   1.078       .  S
C382        H392   1.082       .  S
C393        C394   1.414       .  A
C393        C398   1.415       .  A
C394        C395   1.399       .  A
C394        H407   1.079       .  S
C395        C396   1.402       .  A
C395        H408   1.083       .  S
C396        C397   1.404       .  A
C396        C399   1.490       .  S
C397        C398   1.401       .  A
C397        H409   1.082       .  S
C398        H410   1.083       .  S
C399        C400   1.351       .  D
C399        H411   1.086       .  S
C400        C401   1.492       .  S
C400        H412   1.086       .  S
C401        C402   1.407       .  A
C401        C406   1.405       .  A
C402        C403   1.405       .  A
C402        H413   1.083   1_545  S
C403        C404   1.404       .  A
C403        H414   1.083   1_544  S
C404        C405   1.409       .  A
C405        C406   1.397       .  A
C405        H415   1.084       .  S
C406        H416   1.082       .  S
C417        C418   1.414       .  A
C417        C422   1.417       .  A
C418        C419   1.398       .  A
C418        H431   1.083       .  S
C419        C420   1.402       .  A
C419        H432   1.083       .  S
C420        C421   1.406   1_455  A
C420        C423   1.494   1_455  S
C421        C422   1.405   1_655  A
C421        H433   1.082       .  S
C422        H434   1.079   1_455  S
C423        C424   1.352       .  D
C423        H435   1.085       .  S
C424        C425   1.496       .  S
C424        H436   1.085       .  S
C425        C426   1.407       .  A
C425        C430   1.407       .  A
C426        C427   1.405       .  A
C426        H437   1.083   1_655  S
C427        C428   1.408       .  A
C427        H438   1.083       .  S
C428        C429   1.408       .  A
C429        C430   1.399       .  A
C429        H439   1.083       .  S
C430        H440   1.082       .  S
C441        C442   1.407       .  A
C441        C446   1.408       .  A
C442        C443   1.408       .  A
C442        H455   1.083   1_554  S
C443        C444   1.409       .  A
C443        H456   1.083   1_554  S
C444        C445   1.406       .  A
C444        C447   1.496       .  S
C445        C446   1.395       .  A
C445        H457   1.081       .  S
C446        H458   1.083       .  S
C447        C448   1.354       .  D
C447        H459   1.085       .  S
C448        C449   1.494       .  S
C448        H460   1.085       .  S
C449        C450   1.404       .  A
C449        C454   1.405       .  A
C450        C451   1.399       .  A
C450        H461   1.083       .  S
C451        C452   1.413       .  A
C451        H462   1.079       .  S
C452        C453   1.416       .  A
C453        C454   1.402       .  A
C453        H463   1.083       .  S
C454        H464   1.081       .  S
C465        C466   1.407       .  A
C465        C470   1.406       .  A
C466        C467   1.399   1_655  A
C466        H479   1.083       .  S
C467        C468   1.405   1_455  A
C467        H480   1.083       .  S
C468        C469   1.412       .  A
C468        C471   1.499   1_655  S
C469        C470   1.402       .  A
C469        H481   1.079       .  S
C470        H482   1.083       .  S
C471        C472   1.351   1_455  D
C471        H483   1.084       .  S
C472        C473   1.495   1_655  S
C472        H484   1.082       .  S
C473        C474   1.401   1_455  A
C473        C478   1.408       .  A
C474        C475   1.397       .  A
C474        H485   1.084       .  S
C475        C476   1.416   1_655  A
C475        H486   1.079       .  S
C476        C477   1.414       .  A
C477        C478   1.404       .  A
C477        H487   1.083       .  S
C478        H488   1.081       .  S
C489        C490   1.406       .  A
C489        C494   1.411       .  A
C490        C491   1.407       .  A
C490        H503   1.083       .  S
C491        C492   1.408       .  A
C491        H504   1.083       .  S
C492        C493   1.403       .  A
C492        C495   1.491       .  S
C493        C494   1.394       .  A
C493        H505   1.082       .  S
C494        H506   1.083       .  S
C495        C496   1.350       .  D
C495        H507   1.086       .  S
C496        C497   1.488       .  S
C496        H508   1.086       .  S
C497        C498   1.400       .  A
C497        C502   1.405       .  A
C498        C499   1.398   1_655  A
C498        H509   1.083   1_655  S
C499        C500   1.415   1_455  A
C499        H510   1.083       .  S
C500        C501   1.415       .  A
C501        C502   1.402       .  A
C501        H511   1.080       .  S
C502        H512   1.082       .  S
C513        C514   1.414       .  A
C513        C518   1.411       .  A
C514        C515   1.397   1_545  A
C514        H527   1.083   1_545  S
C515        C516   1.400   1_565  A
C515        H528   1.083       .  S
C516        C517   1.409       .  A
C516        C519   1.492   1_545  S
C517        C518   1.401       .  A
C517        H529   1.081       .  S
C518        H530   1.080       .  S
C519        C520   1.345   1_565  D
C519        H531   1.085       .  S
C520        C521   1.491       .  S
C520        H532   1.085       .  S
C521        C522   1.400       .  A
C521        C526   1.413   1_545  A
C522        C523   1.393       .  A
C522        H533   1.084       .  S
C523        C524   1.408   1_545  A
C523        H534   1.083       .  S
C524        C525   1.406       .  A
C525        C526   1.408       .  A
C525        H535   1.083       .  S
C526        H536   1.081       .  S
C537        C538   1.404       .  A
C537        C542   1.405   1_545  A
C538        C539   1.396       .  A
C538        H551   1.084       .  S
C539        C540   1.404       .  A
C539        H552   1.083       .  S
C540        C541   1.413   1_545  A
C540        C543   1.495       .  S
C541        C542   1.407       .  A
C541        H553   1.081       .  S
C542        H554   1.083       .  S
C543        C544   1.350       .  D
C543        H555   1.085       .  S
C544        C545   1.495       .  S
C544        H556   1.084   1_545  S
C545        C546   1.402       .  A
C545        C550   1.408       .  A
C546        C547   1.400       .  A
C546        H557   1.083   1_545  S
C547        C548   1.415       .  A
C547        H558   1.080   1_545  S
C548        C549   1.412       .  A
C549        C550   1.401       .  A
C549        H559   1.083   1_655  S
C550        H560   1.081       .  S
C561        C562   1.415       .  A
C561        C566   1.415       .  A
C562        C563   1.397       .  A
C562        H575   1.079       .  S
C563        C564   1.400       .  A
C563        H576   1.084       .  S
C564        C565   1.404   1_556  A
C564        C567   1.486   1_556  S
C565        C566   1.400   1_554  A
C565        H577   1.082       .  S
C566        H578   1.083       .  S
C567        C568   1.347       .  D
C567        H579   1.086   1_554  S
C568        C569   1.486       .  S
C568        H580   1.086       .  S
C569        C570   1.400   1_565  A
C569        C574   1.403       .  A
C570        C571   1.399       .  A
C570        H581   1.083       .  S
C571        C572   1.414       .  A
C571        H582   1.083       .  S
C572        C573   1.417       .  A
C573        C574   1.399   1_545  A
C573        H583   1.079       .  S
C574        H584   1.083       .  S
C585        C586   1.406   1_556  A
C585        C590   1.412       .  A
C586        C587   1.399   1_554  A
C586        H599   1.083       .  S
C587        C588   1.405       .  A
C587        H600   1.083   1_556  S
C588        C589   1.409       .  A
C588        C591   1.497       .  S
C589        C590   1.408       .  A
C589        H601   1.081       .  S
C590        H602   1.083       .  S
C591        C592   1.354       .  D
C591        H603   1.081       .  S
C592        C593   1.505       .  S
C592        H604   1.085       .  S
C593        C594   1.406       .  A
C593        C598   1.409       .  A
C594        C595   1.405       .  A
C594        H605   1.083       .  S
C595        C596   1.414       .  A
C595        H606   1.083       .  S
C596        C597   1.413       .  A
C597        C598   1.398       .  A
C597        H607   1.079       .  S
C598        H608   1.078       .  S
C609        C610   1.407       .  A
C609        C614   1.408   1_554  A
C610        C611   1.409       .  A
C610        H623   1.083       .  S
C611        C612   1.409       .  A
C611        H624   1.083       .  S
C612        C613   1.404   1_554  A
C612        C615   1.494       .  S
C613        C614   1.393       .  A
C613        H625   1.082       .  S
C614        H626   1.083       .  S
C615        C616   1.351   1_554  D
C615        H627   1.086       .  S
C616        C617   1.490       .  S
C616        H628   1.086       .  S
C617        C618   1.401       .  A
C617        C622   1.406       .  A
C618        C619   1.395       .  A
C618        H629   1.084       .  S
C619        C620   1.413       .  A
C619        H630   1.083       .  S
C620        C621   1.416       .  A
C621        C622   1.406       .  A
C621        H631   1.080       .  S
C622        H632   1.082       .  S
C633        C634   1.413       .  A
C633        C638   1.415       .  A
C634        C635   1.400       .  A
C634        H647   1.080       .  S
C635        C636   1.403       .  A
C635        H648   1.083       .  S
C636        C637   1.405       .  A
C636        C639   1.492       .  S
C637        C638   1.400       .  A
C637        H649   1.082       .  S
C638        H650   1.083       .  S
C639        C640   1.350       .  D
C639        H651   1.085       .  S
C640        C641   1.493       .  S
C640        H652   1.085       .  S
C641        C642   1.404       .  A
C641        C646   1.408       .  A
C642        C643   1.400       .  A
C642        H653   1.083       .  S
C643        C644   1.407       .  A
C643        H654   1.083       .  S
C644        C645   1.409       .  A
C645        C646   1.401       .  A
C645        H655   1.083       .  S
C646        H656   1.081       .  S
C657        C658   1.415       .  A
C657        C662   1.416   1_655  A
C658        C659   1.399       .  A
C658        H671   1.083       .  S
C659        C660   1.401       .  A
C659        H672   1.083       .  S
C660        C661   1.403       .  A
C660        C663   1.486       .  S
C661        C662   1.397   1_655  A
C661        H673   1.083       .  S
C662        H674   1.079       .  S
C663        C664   1.347       .  D
C663        H675   1.086       .  S
C664        C665   1.485   1_554  S
C664        H676   1.086       .  S
C665        C666   1.400       .  A
C665        C670   1.403   1_556  A
C666        C667   1.398       .  A
C666        H677   1.084       .  S
C667        C668   1.415       .  A
C667        H678   1.078       .  S
C668        C669   1.416       .  A
C669        C670   1.399   1_556  A
C669        H679   1.083       .  S
C670        H680   1.082       .  S
C681        C682   1.413       .  A
C681        C686   1.415       .  A
C682        C683   1.399       .  A
C682        H695   1.083       .  S
C683        C684   1.403       .  A
C683        H696   1.083       .  S
C684        C685   1.407       .  A
C684        C687   1.495       .  S
C685        C686   1.402       .  A
C685        H697   1.080       .  S
C686        H698   1.079       .  S
C687        C688   1.350       .  D
C687        H699   1.086       .  S
C688        C689   1.490       .  S
C688        H700   1.083       .  S
C689        C690   1.404       .  A
C689        C694   1.406       .  A
C690        C691   1.402       .  A
C690        H701   1.083       .  S
C691        C692   1.407       .  A
C691        H702   1.083       .  S
C692        C693   1.408       .  A
C693        C694   1.400       .  A
C693        H703   1.083       .  S
C694        H704   1.082       .  S
C705        C706   1.404   1_554  A
C705        C710   1.405       .  A
C706        C707   1.395       .  A
C706        H719   1.084       .  S
C707        C708   1.402       .  A
C707        H720   1.084       .  S
C708        C709   1.411   1_556  A
C708        C711   1.490       .  S
C709        C710   1.407       .  A
C709        H721   1.082       .  S
C710        H722   1.083       .  S
C711        C712   1.350       .  D
C711        H723   1.082       .  S
C712        C713   1.498       .  S
C712        H724   1.086       .  S
C713        C714   1.404       .  A
C713        C718   1.408       .  A
C714        C715   1.401       .  A
C714        H725   1.083       .  S
C715        C716   1.414       .  A
C715        H726   1.079       .  S
C716        C717   1.413       .  A
C717        C718   1.398       .  A
C717        H727   1.083       .  S
C718        H728   1.079       .  S
C729        C730   1.413       .  A
C729        C734   1.416       .  A
C730        C731   1.401       .  A
C730        H743   1.083       .  S
C731        C732   1.403       .  A
C731        H744   1.083       .  S
C732        C733   1.406       .  A
C732        C735   1.493       .  S
C733        C734   1.398       .  A
C733        H745   1.081       .  S
C734        H746   1.079       .  S
C735        C736   1.350       .  D
C735        H747   1.083       .  S
C736        C737   1.494       .  S
C736        H748   1.085       .  S
C737        C738   1.404   1_556  A
C737        C742   1.410       .  A
C738        C739   1.396       .  A
C738        H749   1.084       .  S
C739        C740   1.406   1_554  A
C739        H750   1.083       .  S
C740        C741   1.408       .  A
C741        C742   1.404       .  A
C741        H751   1.083       .  S
C742        H752   1.080       .  S
C753        C754   1.416       .  A
C753        C758   1.414       .  A
C754        C755   1.395       .  A
C754        H767   1.079       .  S
C755        C756   1.398       .  A
C755        H768   1.084       .  S
C756        C757   1.406       .  A
C756        C759   1.486       .  S
C757        C758   1.401       .  A
C757        H769   1.082       .  S
C758        H770   1.083       .  S
C759        C760   1.344       .  D
C759        H771   1.087       .  S
C760        C761   1.483       .  S
C760        H772   1.086       .  S
C761        C762   1.397       .  A
C761        C766   1.406       .  A
C762        C763   1.394       .  A
C762        H773   1.083       .  S
C763        C764   1.415       .  A
C763        H774   1.083       .  S
C764        C765   1.414       .  A
C765        C766   1.401       .  A
C765        H775   1.079       .  S
C766        H776   1.083       .  S
C777        C778   1.416       .  A
C777        C782   1.417       .  A
C778        C779   1.396       .  A
C778        H791   1.083       .  S
C779        C780   1.398       .  A
C779        H792   1.083       .  S
C780        C781   1.403       .  A
C780        C783   1.484       .  S
C781        C782   1.404       .  A
C781        H793   1.083       .  S
C782        H794   1.077       .  S
C783        C784   1.349       .  D
C783        H795   1.086       .  S
C784        C785   1.491       .  S
C784        H796   1.087       .  S
C785        C786   1.408       .  A
C785        C790   1.402       .  A
C786        C787   1.408       .  A
C786        H797   1.083       .  S
C787        C788   1.406       .  A
C787        H798   1.083       .  S
C788        C789   1.412       .  A
C789        C790   1.395       .  A
C789        H799   1.083       .  S
C790        H800   1.083       .  S
C801        C802   1.404       .  A
C801        C806   1.405       .  A
C802        C803   1.403       .  A
C802        H815   1.083       .  S
C803        C804   1.405       .  A
C803        H816   1.083       .  S
C804        C805   1.406       .  A
C804        C807   1.488       .  S
C805        C806   1.394       .  A
C805        H817   1.082       .  S
C806        H818   1.084       .  S
C807        C808   1.346       .  D
C807        H819   1.086       .  S
C808        C809   1.485       .  S
C808        H820   1.087       .  S
C809        C810   1.397       .  A
C809        C814   1.405       .  A
C810        C811   1.394       .  A
C810        H821   1.084       .  S
C811        C812   1.416       .  A
C811        H822   1.078       .  S
C812        C813   1.416       .  A
C813        C814   1.404       .  A
C813        H823   1.083       .  S
C814        H824   1.082       .  S
C825        C826   1.417       .  A
C825        C830   1.414       .  A
C826        C827   1.399       .  A
C826        H839   1.078       .  S
C827        C828   1.400       .  A
C827        H840   1.083       .  S
C828        C829   1.407       .  A
C828        C831   1.492       .  S
C829        C830   1.401       .  A
C829        H841   1.081       .  S
C830        H842   1.083       .  S
C831        C832   1.348       .  D
C831        H843   1.086       .  S
C832        C833   1.489       .  S
C832        H844   1.085       .  S
C833        C834   1.401       .  A
C833        C838   1.411       .  A
C834        C835   1.395       .  A
C834        H845   1.084       .  S
C835        C836   1.406       .  A
C835        H846   1.084       .  S
C836        C837   1.405       .  A
C837        C838   1.406       .  A
C837        H847   1.083       .  S
C838        H848   1.082       .  S
C849        C850   1.414       .  A
C849        C854   1.413       .  A
C850        C851   1.396       .  A
C850        H863   1.083       .  S
C851        C852   1.400       .  A
C851        H864   1.083       .  S
C852        C853   1.404       .  A
C852        C855   1.483       .  S
C853        C854   1.395       .  A
C853        H865   1.082       .  S
C854        H866   1.079       .  S
C855        C856   1.345       .  D
C855        H867   1.087       .  S
C856        C857   1.478       .  S
C856        H868   1.086       .  S
C857        C858   1.397       .  A
C857        C862   1.404   1_565  A
C858        C859   1.393   1_665  A
C858        H869   1.084   1_655  S
C859        C860   1.415   1_455  A
C859        H870   1.080       .  S
C860        C861   1.413       .  A
C861        C862   1.398       .  A
C861        H871   1.083       .  S
C862        H872   1.083       .  S
C873        C874   1.410       .  A
C873        C878   1.417       .  A
C874        C875   1.397       .  A
C874        H887   1.083       .  S
C875        C876   1.404       .  A
C875        H888   1.083       .  S
C876        C877   1.405       .  A
C876        C879   1.492       .  S
C877        C878   1.401       .  A
C877        H889   1.080       .  S
C878        H890   1.080       .  S
C879        C880   1.353       .  D
C879        H891   1.085       .  S
C880        C881   1.494       .  S
C880        H892   1.084       .  S
C881        C882   1.408       .  A
C881        C886   1.405       .  A
C882        C883   1.407       .  A
C882        H893   1.083       .  S
C883        C884   1.407       .  A
C883        H894   1.083       .  S
C884        C885   1.408       .  A
C885        C886   1.392       .  A
C885        H895   1.083       .  S
C886        H896   1.081       .  S
C897        C898   1.406       .  A
C897        C902   1.409       .  A
C898        C899   1.409       .  A
C898        H911   1.083       .  S
C899        C900   1.409       .  A
C899        H912   1.083       .  S
C900        C901   1.405       .  A
C900        C903   1.497       .  S
C901        C902   1.395       .  A
C901        H913   1.082       .  S
C902        H914   1.083       .  S
C903        C904   1.354       .  D
C903        H915   1.085       .  S
C904        C905   1.494       .  S
C904        H916   1.085       .  S
C905        C906   1.405       .  A
C905        C910   1.404       .  A
C906        C907   1.403       .  A
C906        H917   1.081       .  S
C907        C908   1.416       .  A
C907        H918   1.083       .  S
C908        C909   1.412       .  A
C909        C910   1.398       .  A
C909        H919   1.080       .  S
C910        H920   1.083       .  S
C921        C922   1.405       .  A
C921        C926   1.408       .  A
C922        C923   1.404       .  A
C922        H935   1.083       .  S
C923        C924   1.407       .  A
C923        H936   1.083       .  S
C924        C925   1.405       .  A
C924        C927   1.490       .  S
C925        C926   1.396       .  A
C925        H937   1.082       .  S
C926        H938   1.083       .  S
C927        C928   1.350       .  D
C927        H939   1.086       .  S
C928        C929   1.486       .  S
C928        H940   1.085       .  S
C929        C930   1.401       .  A
C929        C934   1.402       .  A
C930        C931   1.400       .  A
C930        H941   1.083       .  S
C931        C932   1.414       .  A
C931        H942   1.079       .  S
C932        C933   1.416       .  A
C933        C934   1.398       .  A
C933        H943   1.083       .  S
C934        H944   1.082       .  S
